geometry optimzed in LAMMPS
_audit_creation_date              2020-12-01 
_audit_creation_method            'lammps2cif' 
_symmetry_space_group_name_H-M    'P1' 
_symmetry_Int_Tables_number       1 
_symmetry_cell_setting            triclinic 
loop_ 
_symmetry_equiv_pos_as_xyz 
  x,y,z 
_cell_length_a                    33.99068482 
_cell_length_b                    33.97500752916554 
_cell_length_c                    75.31712368337273 
_cell_angle_alpha                 88.73207587512351 
_cell_angle_beta                  91.26691603011325 
_cell_angle_gamma                 122.36618744763119 
loop_ 
_atom_site_label 
_atom_site_type_symbol 
_atom_site_fract_x 
_atom_site_fract_y 
_atom_site_fract_z 
_atom_site_charge 
C1          C  0.26237637  0.13399648  0.35014855     0.80500
N2          N  0.28658332  0.17210510  0.33934957    -0.77800
C3          C  0.26503094  0.19072149  0.33038917     0.82900
N4          N  0.21842655  0.17041478  0.33198839    -0.77800
C5          C  0.19369578  0.13216904  0.34253475     0.83000
N6          N  0.21574090  0.11418723  0.35152105    -0.79500
O7          O  0.35040253  0.03704031  0.40040430    -0.57600
C8          C  0.39454380  0.97383578  0.43741504     0.75100
O9          O  0.48356207  0.04006939  0.39107293    -0.58700
C10         C  0.36977786  0.07178356  0.38982600     0.75000
C11         C  0.48208138  0.12757096  0.42957842     0.77400
Cd12       Cd  0.42515309  0.04372402  0.40950501     1.37500
O13         O  0.36624777  0.97981268  0.42839680    -0.57600
O14         O  0.43886532  0.10015148  0.43208625    -0.56400
C15         C  0.45314072  0.00728901  0.38140882     0.77400
O16         O  0.49942445  0.11601898  0.41757448    -0.58700
O17         O  0.43691316  0.99986920  0.43318745    -0.57200
O18         O  0.41333203  0.09152784  0.38851537    -0.57200
O19         O  0.41137097  0.99206705  0.38519824    -0.56400
C20         C  0.58795385  0.34415615  0.49553425     0.80500
N21         N  0.56256294  0.30472203  0.48586575    -0.77800
C22         C  0.58289305  0.29375453  0.47317667     0.82900
N23         N  0.62928040  0.32338642  0.47013793    -0.77800
C24         C  0.65468642  0.36369191  0.47928904     0.83000
N25         N  0.63381138  0.37385468  0.49196405    -0.79500
C26         C  0.78216963  0.40481450  0.47614373     0.03400
C27         C  0.73331343  0.37570792  0.47629253    -0.12800
C28         C  0.70538104  0.39457806  0.47657102     0.00900
C29         C  0.72663767  0.44314971  0.47616131    -0.11300
C30         C  0.77540036  0.47267998  0.47586246     0.03400
C31         C  0.80304887  0.45333122  0.47583087    -0.10700
H32         H  0.71704815  0.33824762  0.47707157     0.09000
H33         H  0.70530561  0.45794368  0.47685175     0.06500
H34         H  0.84067979  0.47595189  0.47636556     0.06300
C35         C  0.01569543  0.91931863  0.32314476     0.80500
N36         N  0.97762302  0.89421135  0.33365408    -0.77800
C37         C  0.96889797  0.91497662  0.34696390     0.82900
N38         N  0.99825755  0.96156229  0.34930101    -0.77800
C39         C  0.03638284  0.98684896  0.33910099     0.83000
N40         N  0.04529633  0.96551127  0.32622630    -0.79500
O41         O  0.71316812  0.68910152  0.41996402    -0.57600
C42         C  0.65395231  0.74181871  0.38629839     0.75100
O43         O  0.72440370  0.82030285  0.43509972    -0.58700
C44         C  0.74197026  0.70414921  0.43284952     0.75000
C45         C  0.80680550  0.81954148  0.39290654     0.77400
Cd46       Cd  0.72277193  0.76564377  0.41333368     1.37500
O47         O  0.65815258  0.71106537  0.39437755    -0.57600
O48         O  0.77727752  0.77685635  0.39018302    -0.56400
C49         C  0.68269506  0.79308155  0.44004751     0.77400
O50         O  0.79737739  0.83774095  0.40529917    -0.58700
O51         O  0.68216917  0.78364540  0.39075033    -0.57200
O52         O  0.76107411  0.74680850  0.43633606    -0.57200
O53         O  0.66022008  0.75392875  0.43254298    -0.56400
C54         C  0.79871299  0.59215726  0.47074323     0.80500
N55         N  0.78019597  0.54591732  0.46837398    -0.77800
C56         C  0.79715818  0.52331972  0.47765330     0.82900
N57         N  0.83173430  0.54686390  0.48981766    -0.77800
C58         C  0.84896914  0.59248468  0.49294723     0.83000
N59         N  0.83273683  0.61508679  0.48323545    -0.79500
C60         C  0.00179065  0.15568749  0.32494544     0.80500
N61         N  0.02028166  0.12949094  0.32814890    -0.77800
C62         C  0.05235797  0.14057314  0.34124138     0.82900
N63         N  0.06595790  0.17831504  0.35150408    -0.77800
C64         C  0.04666561  0.20427777  0.34888813     0.83000
N65         N  0.01436485  0.19259935  0.33563255    -0.79500
O66         O  0.12533624  0.38076864  0.40314619    -0.57600
C67         C  0.18585761  0.48445784  0.44021935     0.75100
O68         O  0.12298885  0.50597282  0.38908214    -0.58700
C69         C  0.09124740  0.36260801  0.39232820     0.75000
C70         C  0.03622777  0.42652956  0.42982981     0.77400
Cd71       Cd  0.11873655  0.44774105  0.41106983     1.37500
O72         O  0.17682684  0.44864061  0.43181788    -0.57600
O73         O  0.05838689  0.40703902  0.43361478    -0.56400
C74         C  0.16307259  0.51877983  0.38352660     0.77400
O75         O  0.05208329  0.45571142  0.41710087    -0.58700
O76         O  0.16365906  0.50302128  0.43507694    -0.57200
O77         O  0.06979143  0.38340600  0.39035946    -0.57200
O78         O  0.18223093  0.49955312  0.39101071    -0.56400
C79         C  0.82271408  0.33118870  0.49491314     0.80500
N80         N  0.86118209  0.34514606  0.48524987    -0.77800
C81         C  0.87546674  0.37888856  0.47258662     0.82900
N82         N  0.84991230  0.39864030  0.46945406    -0.77800
C83         C  0.81057561  0.38417728  0.47895810     0.83000
N84         N  0.79749531  0.35074355  0.49171594    -0.79500
C85         C  0.07372038  0.11285052  0.34329112     0.03400
C86         C  0.04581694  0.06413339  0.34209399    -0.12800
C87         C  0.06613917  0.03758582  0.34132449     0.00900
C88         C  0.11470625  0.05998828  0.34187347    -0.11300
C89         C  0.14287066  0.10866144  0.34327833     0.03400
C90         C  0.12223769  0.13494118  0.34407426    -0.10700
H91         H  0.00826509  0.04700205  0.34111395     0.09000
H92         H  0.13050658  0.03963827  0.34083496     0.06500
H93         H  0.14394466  0.17262425  0.34457439     0.06300
C94         C  0.58772882  0.83229840  0.49378136     0.80500
N95         N  0.61253630  0.87257205  0.50308619    -0.77800
C96         C  0.59160450  0.88378042  0.51544737     0.82900
N97         N  0.54527631  0.85429127  0.51858003    -0.77800
C98         C  0.52043293  0.81328379  0.50974041     0.83000
N99         N  0.54204235  0.80255883  0.49756561    -0.79500
O100        O  0.80994498  0.19106227  0.55910957    -0.57600
C101        C  0.81656146  0.11317368  0.60003696     0.75100
O102        O  0.70243656  0.13173978  0.60212702    -0.58700
C103        C  0.78102144  0.20008822  0.55251333     0.75000
C104        C  0.70191073  0.04729294  0.55912536     0.77400
Cd105      Cd  0.75568194  0.13150739  0.58005453     1.37500
O106        O  0.83214723  0.14507833  0.58826395    -0.57600
O107        O  0.74591662  0.07150406  0.55924169    -0.56400
C108        C  0.73246224  0.17097883  0.60872958     0.77400
O109        O  0.68203895  0.06139473  0.56890638    -0.58700
O110        O  0.77301274  0.09017472  0.60248539    -0.57200
O111        O  0.74030079  0.17716375  0.55875514    -0.57200
O112        O  0.77240367  0.19163451  0.60189483    -0.56400
C113        C  0.92311648  0.05738647  0.64201314     0.80500
N114        N  0.90168896  0.02304974  0.65449515    -0.77800
C115        C  0.92526504  0.00652137  0.66338760     0.82900
N116        N  0.97019258  0.02364586  0.65909853    -0.77800
C117        C  0.99215797  0.05811914  0.64678068     0.83000
N118        N  0.96865610  0.07522105  0.63834788    -0.79500
C119        C  0.38493639  0.58463299  0.51437988     0.80500
N120        N  0.34829769  0.56076772  0.50305457    -0.77800
C121        C  0.32788351  0.58133321  0.49476339     0.82900
N122        N  0.34455291  0.62693440  0.49790103    -0.77800
C123        C  0.38113814  0.65156235  0.50925712     0.83000
N124        N  0.40126073  0.63032215  0.51734046    -0.79500
O125        O  0.53886989  0.48903161  0.59830157    -0.57600
C126        C  0.45866444  0.49167417  0.55619706     0.75100
O127        O  0.46582255  0.37415858  0.55524866    -0.58700
C128        C  0.54271751  0.45871219  0.60689216     0.75000
C129        C  0.39401891  0.37940373  0.59793333     0.77400
Cd130      Cd  0.47772719  0.43224951  0.57758902     1.37500
O131        O  0.49498125  0.50937980  0.56592457    -0.57600
O132        O  0.41879300  0.42336965  0.59813705    -0.56400
C133        C  0.50816032  0.39441411  0.55095160     0.77400
O134        O  0.40787059  0.35953501  0.58807070    -0.58700
O135        O  0.43311027  0.44772428  0.55643245    -0.57200
O136        O  0.51727955  0.41720159  0.60156354    -0.57200
O137        O  0.53633479  0.43127667  0.55926174    -0.56400
C138        C  0.17403471  0.26812526  0.65943476     0.80500
N139        N  0.21355884  0.29105138  0.64981281    -0.77800
C140        C  0.22314733  0.26828414  0.63771920     0.82900
N141        N  0.19312755  0.22162743  0.63583611    -0.77800
C142        C  0.15317283  0.19831794  0.64530808     0.83000
N143        N  0.14368379  0.22178132  0.65707515    -0.79500
C144        C  0.34607597  0.83834262  0.49466804     0.80500
N145        N  0.37354734  0.82122495  0.49797619    -0.77800
C146        C  0.36164363  0.78708141  0.51032090     0.82900
N147        N  0.32133222  0.76951998  0.51945309    -0.77800
C148        C  0.29323150  0.78618942  0.51614302     0.83000
N149        N  0.30584534  0.82059693  0.50378796    -0.79500
O150        O  0.99338802  0.67464921  0.59760974    -0.57600
C151        C  0.13476208  0.74171978  0.55834110     0.75100
O152        O  0.00718559  0.73108624  0.55217502    -0.58700
C153        C  0.01623459  0.66040045  0.60596036     0.75000
C154        C  0.08031052  0.81393246  0.59241571     0.77400
Cd155      Cd  0.05461883  0.72673679  0.57670499     1.37500
O156        O  0.12281602  0.71985268  0.57302852    -0.57600
O157        O  0.10855791  0.80088200  0.59110068    -0.56400
C158        C  0.98700772  0.68845902  0.54825220     0.77400
O159        O  0.03958336  0.78621918  0.58647720    -0.58700
O160        O  0.10946592  0.75587447  0.55222752    -0.57200
O161        O  0.05729519  0.67679974  0.60068530    -0.57200
O162        O  0.99807107  0.66416662  0.55749253    -0.56400
C163        C  0.17563103  0.02017305  0.65783450     0.80500
N164        N  0.16085859  0.98384489  0.64666636    -0.77800
C165        C  0.12862108  0.97501974  0.63370677     0.82900
N166        N  0.11142798  0.00300639  0.63191484    -0.77800
C167        C  0.12705169  0.04006036  0.64278119     0.83000
N168        N  0.15922616  0.04857001  0.65558557    -0.79500
C169        C  0.10815992  0.07007260  0.64146035     0.03400
C170        C  0.13848231  0.11869142  0.64181858    -0.12800
C171        C  0.12095874  0.14762076  0.64328405     0.00900
C172        C  0.07263586  0.12752111  0.64411782    -0.11300
C173        C  0.04208187  0.07895244  0.64370384     0.03400
C174        C  0.05998924  0.05035267  0.64226601    -0.10700
H175        H  0.17582702  0.13386216  0.64173568     0.09000
H176        H  0.05887479  0.14956208  0.64571643     0.06500
H177        H  0.03662171  0.01278872  0.64261519     0.06300
C178        C  0.39169254  0.76814082  0.51284779     0.03400
C179        C  0.37224739  0.71981078  0.51238461    -0.12800
C180        C  0.40111865  0.70190629  0.51176794     0.00900
C181        C  0.44971601  0.73280811  0.51193064    -0.11300
C182        C  0.46971001  0.78122535  0.51240055     0.03400
C183        C  0.44047169  0.79859282  0.51311585    -0.10700
H184        H  0.33475175  0.69631471  0.51169470     0.09000
H185        H  0.47205749  0.71923925  0.51087512     0.06500
H186        H  0.45561493  0.83589439  0.51294459     0.06300
C187        C  0.93112136  0.46982541  0.68302812     0.80500
N188        N  0.88537719  0.45068741  0.68694348    -0.77800
C189        C  0.86053211  0.46696961  0.67893268     0.82900
N190        N  0.88122595  0.50184158  0.66673501    -0.77800
C191        C  0.92611998  0.52044432  0.66214388     0.83000
N192        N  0.95112397  0.50469733  0.67060326    -0.79500
O193        O  0.03958907  0.31068402  0.75891926    -0.57600
C194        C  0.03670965  0.40686740  0.72314613     0.75100
O195        O  0.16640923  0.45231350  0.75387494    -0.58700
C196        C  0.06963865  0.31022092  0.76907628     0.75000
C197        C  0.13213375  0.35458348  0.71455862     0.77400
Cd198      Cd  0.09582192  0.38288896  0.74253620     1.37500
O199        O  0.02019373  0.37357222  0.73435445    -0.57600
O200        O  0.08960359  0.33241467  0.71869615    -0.56400
C201        C  0.14632451  0.46220444  0.76535098     0.77400
O202        O  0.15906826  0.39086848  0.72342641    -0.58700
O203        O  0.08025507  0.42842279  0.72084460    -0.57200
O204        O  0.11121026  0.34307686  0.76662485    -0.57200
O205        O  0.10250428  0.43562040  0.76588923    -0.56400
C206        C  0.26485599  0.68471073  0.82635893     0.80500
N207        N  0.24081664  0.64275989  0.81827044    -0.77800
C208        C  0.26072138  0.63170584  0.80544671     0.82900
N209        N  0.30559189  0.66322041  0.80090755    -0.77800
C210        C  0.32982322  0.70548613  0.80880036     0.83000
N211        N  0.30907438  0.71610283  0.82130839    -0.79500
C212        C  0.46614836  0.93463160  0.80220603     0.80500
N213        N  0.44965320  0.88929656  0.79839151    -0.77800
C214        C  0.46825008  0.86691684  0.80674004     0.82900
N215        N  0.50262477  0.88988338  0.81900077    -0.77800
C216        C  0.51830911  0.93438501  0.82335824     0.83000
N217        N  0.50037782  0.95679609  0.81464639    -0.79500
O218        O  0.37104630  0.02139664  0.75034132    -0.57600
C219        C  0.31183221  0.07086893  0.71476467     0.75100
O220        O  0.37720622  0.15225407  0.76447132    -0.58700
C221        C  0.39837608  0.03604224  0.76366570     0.75000
C222        C  0.46362188  0.15355097  0.72586796     0.77400
Cd223      Cd  0.37692691  0.09585412  0.74405274     1.37500
O224        O  0.31148305  0.03984183  0.72457244    -0.57600
O225        O  0.43771637  0.11007258  0.72355923    -0.56400
C226        C  0.33686729  0.12362701  0.77042040     0.77400
O227        O  0.44936584  0.17096745  0.73676980    -0.58700
O228        O  0.34171833  0.11246188  0.71886994    -0.57200
O229        O  0.41399088  0.07748959  0.76827350    -0.57200
O230        O  0.31599423  0.08299120  0.76418143    -0.56400
C231        C  0.68239859  0.25551552  0.66279569     0.80500
N232        N  0.64338715  0.23089141  0.67273492    -0.77800
C233        C  0.63361936  0.25218273  0.68541077     0.82900
N234        N  0.66281699  0.29866179  0.68787495    -0.77800
C235        C  0.70228458  0.32346719  0.67830935     0.83000
N236        N  0.71218330  0.30178140  0.66584936    -0.79500
C237        C  0.50586785  0.68786530  0.83168870     0.80500
N238        N  0.47703235  0.70251784  0.82673405    -0.77800
C239        C  0.48829074  0.73349276  0.81307089     0.82900
N240        N  0.52822901  0.74914008  0.80401177    -0.77800
C241        C  0.55679765  0.73400045  0.80861402     0.83000
N242        N  0.54537230  0.70350746  0.82236253    -0.79500
O243        O  0.73284917  0.80612787  0.75602950    -0.57600
C244        C  0.83181248  0.86502363  0.71890380     0.75100
O245        O  0.85350707  0.79559194  0.76728760    -0.58700
C246        C  0.71250594  0.77049390  0.76611427     0.75000
C247        C  0.76834672  0.70789660  0.72865775     0.77400
Cd248      Cd  0.79401245  0.79337730  0.74676768     1.37500
O249        O  0.78894766  0.84236412  0.72251713    -0.57600
O250        O  0.74147645  0.72280717  0.72950075    -0.56400
C251        C  0.85715845  0.82703681  0.77723970     0.77400
O252        O  0.80790730  0.73289982  0.73604544    -0.58700
O253        O  0.85634461  0.85451463  0.72824677    -0.57200
O254        O  0.72970516  0.74545264  0.76691837    -0.57200
O255        O  0.83223353  0.84303628  0.77288880    -0.56400
C256        C  0.66596557  0.49188206  0.66677494     0.80500
N257        N  0.68301744  0.53104264  0.67646263    -0.77800
C258        C  0.71865186  0.54417127  0.68820586     0.82900
N259        N  0.73771656  0.51787238  0.69019063    -0.77800
C260        C  0.72064123  0.47831874  0.68059661     0.83000
N261        N  0.68488571  0.46561368  0.66888220    -0.79500
C262        C  0.74167764  0.45002276  0.68217478     0.03400
C263        C  0.79024702  0.47137998  0.68245041    -0.12800
C264        C  0.81022376  0.44433617  0.68184239     0.00900
C265        C  0.78127116  0.39563403  0.68119129    -0.11300
C266        C  0.73273533  0.37403922  0.68080954     0.03400
C267        C  0.71314824  0.40128695  0.68153939    -0.10700
H268        H  0.81250113  0.50908047  0.68222013     0.09000
H269        H  0.79641894  0.37471186  0.68010472     0.06500
H270        H  0.67562880  0.38462085  0.68090283     0.06300
C271        C  0.45782093  0.75078481  0.80842472     0.03400
C272        C  0.47697164  0.79877064  0.80631457    -0.12800
C273        C  0.44803765  0.81652906  0.80455928     0.00900
C274        C  0.39949347  0.78548660  0.80416791    -0.11300
C275        C  0.38002343  0.73723216  0.80587317     0.03400
C276        C  0.40935026  0.72011809  0.80797066    -0.10700
H277        H  0.51438956  0.82256787  0.80730288     0.09000
H278        H  0.37685733  0.79891195  0.80373715     0.06500
H279        H  0.39443770  0.68315675  0.81022143     0.06300
C280        C  0.58821164  0.38151928  0.97053117     0.80500
N281        N  0.63487554  0.40086990  0.96901965    -0.77800
C282        C  0.65704480  0.38487473  0.97920514     0.82900
N283        N  0.63252825  0.34973477  0.99103228    -0.77800
C284        C  0.58618788  0.33074032  0.99292947     0.83000
N285        N  0.56405702  0.34628171  0.98249651    -0.79500
O286        O  0.48533059  0.53296283  0.89196922    -0.57600
C287        C  0.48097930  0.43698032  0.92807063     0.75100
O288        O  0.37203692  0.46887763  0.93200250    -0.58700
C289        C  0.45799483  0.54401677  0.88526088     0.75000
C290        C  0.36487665  0.39069695  0.88826354     0.77400
Cd291      Cd  0.42623684  0.46861702  0.91051282     1.37500
O292        O  0.49972169  0.47217238  0.91773444    -0.57600
O293        O  0.40714451  0.41927984  0.88460494    -0.56400
C294        C  0.40331885  0.50465763  0.94020579     0.77400
O295        O  0.35031789  0.39837069  0.90233166    -0.58700
O296        O  0.43751786  0.41682267  0.92999497    -0.57200
O297        O  0.41629501  0.52066037  0.89052712    -0.57200
O298        O  0.44401361  0.52296828  0.93432668    -0.56400
C299        C  0.25581532  0.17152612  0.82649328     0.80500
N300        N  0.21025196  0.13984898  0.82992906    -0.77800
C301        C  0.18704999  0.14882169  0.84193019     0.82900
N302        N  0.20955985  0.18978007  0.85068558    -0.77800
C303        C  0.25542582  0.22128789  0.84790641     0.83000
N304        N  0.27820682  0.21240252  0.83550517    -0.79500
C305        C  0.84017894  0.34736985  0.99694649     0.80500
N306        N  0.82437409  0.30975869  0.98638457    -0.77800
C307        C  0.79293222  0.30064179  0.97317919     0.82900
N308        N  0.77679126  0.32919626  0.97041909    -0.77800
C309        C  0.79303556  0.36742304  0.98063633     0.83000
N310        N  0.82491203  0.37645893  0.99365393    -0.79500
O311        O  0.70664009  0.12001661  0.92181511    -0.57600
C312        C  0.65494239  0.02798280  0.88002451     0.75100
O313        O  0.78734087  0.05265247  0.90190019    -0.58700
C314        C  0.74756711  0.14725751  0.92772080     0.75000
C315        C  0.68585700  0.99439966  0.93752354     0.77400
Cd316      Cd  0.72262602  0.06365747  0.90884066     1.37500
O317        O  0.67615340  0.07050343  0.88411892    -0.57600
O318        O  0.66721763  0.01672062  0.93268482    -0.56400
C319        C  0.80518266  0.08465486  0.89016019     0.77400
O320        O  0.72202844  0.00437642  0.92916212    -0.58700
O321        O  0.66525153  0.00325591  0.88932606    -0.57200
O322        O  0.77671650  0.13616320  0.92456734    -0.57200
O323        O  0.78440212  0.10580908  0.88719787    -0.56400
C324        C  0.01089788  0.16674539  0.82402106     0.80500
N325        N  0.97401308  0.15360607  0.83459918    -0.77800
C326        C  0.96333882  0.12260692  0.84821428     0.82900
N327        N  0.99062292  0.10504916  0.85135255    -0.77800
C328        C  0.02801776  0.11839435  0.84096858     0.83000
N329        N  0.03810659  0.14936641  0.82747082    -0.79500
C330        C  0.05861115  0.10071020  0.84432400     0.03400
C331        C  0.04028764  0.05269712  0.84572914    -0.12800
C332        C  0.07021164  0.03591105  0.84633752     0.00900
C333        C  0.11859233  0.06765458  0.84569437    -0.11300
C334        C  0.13698924  0.11570198  0.84446807     0.03400
C335        C  0.10693224  0.13199621  0.84400025    -0.10700
H336        H  0.00286122  0.02841044  0.84552229     0.09000
H337        H  0.14181528  0.05497425  0.84549941     0.06500
H338        H  0.12110152  0.16907295  0.84249211     0.06300
C339        C  0.83998489  0.59564986  0.99406358     0.80500
N340        N  0.87824639  0.61858666  0.98370698    -0.77800
C341        C  0.88623170  0.59536205  0.97128335     0.82900
N342        N  0.85631016  0.54862994  0.96967109    -0.77800
C343        C  0.81773457  0.52554605  0.97985269     0.83000
N344        N  0.80934580  0.54925570  0.99190670    -0.79500
O345        O  0.13432837  0.69434805  0.88755023    -0.57600
C346        C  0.04981050  0.68987337  0.92733812     0.75100
O347        O  0.19609293  0.80011933  0.93088683    -0.58700
C348        C  0.17525509  0.72248049  0.88204892     0.75000
C349        C  0.11950792  0.81188074  0.88945736     0.77400
Cd350      Cd  0.13623973  0.74813650  0.90931975     1.37500
O351        O  0.06578222  0.67185238  0.91757234    -0.57600
O352        O  0.10282589  0.77016886  0.88496083    -0.56400
C353        C  0.20011966  0.76895435  0.93869146     0.77400
O354        O  0.14471044  0.82484318  0.90341489    -0.58700
O355        O  0.07318640  0.73384154  0.92804982    -0.57200
O356        O  0.19796515  0.76176259  0.88949677    -0.57200
O357        O  0.17478430  0.72837699  0.93259321    -0.56400
C358        C  0.05543767  0.92004544  0.85305800     0.80500
N359        N  0.07184363  0.96616356  0.85463526    -0.77800
C360        C  0.05103360  0.98545301  0.84555052     0.82900
N361        N  0.01440745  0.95865846  0.83452610    -0.77800
C362        C  0.99862400  0.91297563  0.83237242     0.83000
N363        N  0.01909006  0.89383892  0.84170972    -0.79500
C364        C  0.77428758  0.39749882  0.97849230     0.03400
C365        C  0.72599697  0.37762842  0.97819943    -0.12800
C366        C  0.70758432  0.40604145  0.97795227     0.00900
C367        C  0.73778392  0.45462375  0.97802283    -0.11300
C368        C  0.78615886  0.47481476  0.97834705     0.03400
C369        C  0.80428305  0.44615135  0.97842158    -0.10700
H370        H  0.70273496  0.34004058  0.97872327     0.09000
H371        H  0.72371783  0.47663878  0.97836105     0.06500
H372        H  0.84167129  0.46164422  0.97905641     0.06300
C373        C  0.71599167  0.25152703  0.18285913     0.80500
N374        N  0.73475744  0.29786005  0.18505429    -0.77800
C375        C  0.71623272  0.31989361  0.17648197     0.82900
N376        N  0.67962376  0.29566458  0.16520059    -0.77800
C377        C  0.66132021  0.24965947  0.16236997     0.83000
N378        N  0.67982275  0.22787583  0.17120242    -0.79500
O379        O  0.85643406  0.13790360  0.26141987    -0.57600
C380        C  0.77741133  0.14228859  0.21985121     0.75100
O381        O  0.79981602  0.02594581  0.22044086    -0.58700
C382        C  0.86675371  0.10986052  0.26793992     0.75000
C383        C  0.71032477  0.02497074  0.25737816     0.77400
Cd384      Cd  0.79816444  0.08273118  0.23960077     1.37500
O385        O  0.80804070  0.15855101  0.23212934    -0.57600
O386        O  0.73679348  0.06822040  0.25996343    -0.56400
C387        C  0.83450466  0.05552669  0.21136768     0.77400
O388        O  0.72446699  0.00779885  0.24633133    -0.58700
O389        O  0.75706921  0.09912626  0.21709229    -0.57200
O390        O  0.84618134  0.06973882  0.26118557    -0.57200
O391        O  0.85188758  0.09786495  0.21520966    -0.56400
C392        C  0.50409098  0.92709137  0.32631771     0.80500
N393        N  0.54077343  0.95084211  0.31521471    -0.77800
C394        C  0.54868941  0.92796677  0.30256657     0.82900
N395        N  0.52032141  0.88081794  0.30157497    -0.77800
C396        C  0.48355085  0.85710220  0.31257781     0.83000
N397        N  0.47525948  0.88038800  0.32475461    -0.79500
C398        C  0.73094947  0.43809373  0.17697023     0.03400
C399        C  0.71052199  0.38975512  0.17827389    -0.12800
C400        C  0.73822600  0.37060937  0.17790724     0.00900
C401        C  0.78679055  0.40024702  0.17668997    -0.11300
C402        C  0.80766049  0.44873020  0.17545568     0.03400
C403        C  0.77955249  0.46747030  0.17565180    -0.10700
H404        H  0.67291870  0.36691992  0.17862473     0.09000
H405        H  0.80818255  0.38553058  0.17599484     0.06500
H406        H  0.79530733  0.50477010  0.17410149     0.06300
C407        C  0.68030196  0.50197626  0.15717203     0.80500
N408        N  0.70938953  0.48694010  0.16080581    -0.77800
C409        C  0.70120384  0.45716240  0.17454878     0.82900
N410        N  0.66401360  0.44309474  0.18515558    -0.77800
C411        C  0.63528578  0.45896570  0.18204732     0.83000
N412        N  0.64364893  0.48822873  0.16802311    -0.79500
O413        O  0.33034565  0.38020768  0.22758211    -0.57600
C414        C  0.42518775  0.48289369  0.26235134     0.75100
O415        O  0.39865127  0.34118509  0.26796681    -0.58700
C416        C  0.33156993  0.35153133  0.21750794     0.75000
C417        C  0.48196602  0.42195648  0.22658824     0.77400
Cd418      Cd  0.39906168  0.39650149  0.24579156     1.37500
O419        O  0.39238852  0.46449159  0.25096635    -0.57600
O420        O  0.45974519  0.44177775  0.22374329    -0.56400
C421        C  0.36035989  0.32968784  0.27495242     0.77400
O422        O  0.46624678  0.39074395  0.23865957    -0.58700
O423        O  0.44614417  0.46201281  0.26558599    -0.57200
O424        O  0.36306133  0.34324025  0.22076780    -0.57200
O425        O  0.34045955  0.34939104  0.26851791    -0.56400
C426        C  0.51780503  0.68777642  0.32900850     0.80500
N427        N  0.49856878  0.71372248  0.32670226    -0.77800
C428        C  0.46394041  0.70181442  0.31467064     0.82900
N429        N  0.44817315  0.66354804  0.30456922    -0.77800
C430        C  0.46745127  0.63757130  0.30646598     0.83000
N431        N  0.50225177  0.65004591  0.31861130    -0.79500
C432        C  0.92649476  0.49567846  0.15825331     0.80500
N433        N  0.87994000  0.46734248  0.16105409    -0.77800
C434        C  0.85828999  0.47943522  0.17270962     0.82900
N435        N  0.88348244  0.52016344  0.18162897    -0.77800
C436        C  0.92999798  0.54872417  0.17886964     0.83000
N437        N  0.95114821  0.53634763  0.16716429    -0.79500
O438        O  0.15256102  0.85450749  0.22262498    -0.57600
C439        C  0.15849432  0.77448031  0.26266386     0.75100
O440        O  0.03826697  0.78928800  0.26438759    -0.58700
C441        C  0.12300260  0.86041971  0.21452869     0.75000
C442        C  0.03973730  0.71224210  0.22222755     0.77400
Cd443      Cd  0.09675597  0.79476311  0.24334168     1.37500
O444        O  0.17485232  0.81131259  0.25334910    -0.57600
O445        O  0.08031771  0.74387977  0.21756904    -0.56400
C446        C  0.06333706  0.83065716  0.26989842     0.77400
O447        O  0.02545686  0.71903757  0.23653316    -0.58700
O448        O  0.11461182  0.74836179  0.26293593    -0.57200
O449        O  0.08173750  0.83652163  0.22026120    -0.57200
O450        O  0.10328543  0.85509120  0.26310611    -0.56400
C451        C  0.25675542  0.71084938  0.30585127     0.80500
N452        N  0.30335369  0.73036564  0.30454957    -0.77800
C453        C  0.32545306  0.71526353  0.31518616     0.82900
N454        N  0.30103110  0.68123153  0.32744481    -0.77800
C455        C  0.25465191  0.66262258  0.32931941     0.83000
N456        N  0.23260414  0.67728608  0.31837028    -0.79500
C457        C  0.44342716  0.73011746  0.31300381     0.03400
C458        C  0.39508070  0.70906524  0.31397145    -0.12800
C459        C  0.37580071  0.73663407  0.31372808     0.00900
C460        C  0.40497813  0.78517169  0.31261081    -0.11300
C461        C  0.45329660  0.80633554  0.31181525     0.03400
C462        C  0.47247746  0.77876560  0.31188327    -0.10700
H463        H  0.37266047  0.67150737  0.31520399     0.09000
H464        H  0.39014880  0.80658197  0.31280149     0.06500
H465        H  0.51002206  0.79517226  0.31165196     0.06300
C466        C  0.35405825  0.58277077  0.99721917     0.80500
N467        N  0.31546666  0.55853388  0.00736605    -0.77800
C468        C  0.30282755  0.58074401  0.01846697     0.82900
N469        N  0.33002855  0.62795456  0.01976852    -0.77800
C470        C  0.36987186  0.65250147  0.01020045     0.83000
N471        N  0.38143419  0.62974968  0.99891808    -0.79500
O472        O  0.04135111  0.33748988  0.08816500    -0.57600
C473        C  0.97759533  0.38234217  0.05193966     0.75100
O474        O  0.05212051  0.46692550  0.10111272    -0.58700
C475        C  0.07461849  0.35596858  0.09936765     0.75000
C476        C  0.13184953  0.46715004  0.05769680     0.77400
Cd477      Cd  0.04904474  0.41181161  0.07882731     1.37500
O478        O  0.98783101  0.35404411  0.05835771    -0.57600
O479        O  0.10693524  0.42325915  0.05684910    -0.56400
C480        C  0.00951040  0.44135849  0.10526070     0.77400
O481        O  0.11766233  0.48619451  0.06785363    -0.58700
O482        O  0.00083447  0.42342011  0.05784938    -0.57200
O483        O  0.09414885  0.39940057  0.10143264    -0.57200
O484        O  0.98640295  0.40237396  0.09768429    -0.56400
C485        C  0.14663417  0.25913241  0.13932496     0.80500
N486        N  0.12549518  0.21226522  0.13747479    -0.77800
C487        C  0.13955480  0.18807202  0.14744534     0.82900
N488        N  0.17443851  0.21074486  0.15962537    -0.77800
C489        C  0.19492074  0.25729725  0.16184645     0.83000
N490        N  0.18087135  0.28118080  0.15174632    -0.79500
C491        C  0.59842849  0.80462016  0.01525196     0.80500
N492        N  0.62039254  0.83981953  0.00315192    -0.77800
C493        C  0.59668966  0.85549324  0.99383867     0.82900
N494        N  0.55020304  0.83475745  0.99641175    -0.77800
C495        C  0.52761183  0.79865757  0.00815364     0.83000
N496        N  0.55178414  0.78348471  0.01744759    -0.79500
O497        O  0.68120002  0.69875171  0.06326307    -0.57600
C498        C  0.72187043  0.63782759  0.10083952     0.75100
O499        O  0.81622294  0.70979013  0.05756290    -0.58700
C500        C  0.69872286  0.73854607  0.05598817     0.75000
C501        C  0.81643655  0.79478839  0.09497258     0.77400
Cd502      Cd  0.75597638  0.71223315  0.07461766     1.37500
O503        O  0.69790938  0.65463437  0.09594234    -0.57600
O504        O  0.77444208  0.76609907  0.09911679    -0.56400
C505        C  0.78816609  0.68166813  0.04600022     0.77400
O506        O  0.83068858  0.78474784  0.08146298    -0.58700
O507        O  0.76060487  0.65468163  0.09326141    -0.57200
O508        O  0.74233985  0.76581387  0.05768687    -0.57200
O509        O  0.74591391  0.66850093  0.04767086    -0.56400
C510        C  0.92434034  0.01275765  0.15772251     0.80500
N511        N  0.90099185  0.97178433  0.14896992    -0.77800
C512        C  0.92380851  0.95932051  0.13816577     0.82900
N513        N  0.97062164  0.98839559  0.13619209    -0.77800
C514        C  0.99428078  0.02958200  0.14494022     0.83000
N515        N  0.97095641  0.04145749  0.15573816    -0.79500
C516        C  0.16188052  0.99164855  0.15664679     0.80500
N517        N  0.20221775  0.01078758  0.14744105    -0.77800
C518        C  0.21562718  0.04780517  0.13631875     0.82900
N519        N  0.18870084  0.06604585  0.13446933    -0.77800
C520        C  0.14848299  0.04721242  0.14360723     0.83000
N521        N  0.13540410  0.01030544  0.15468576    -0.79500
O522        O  0.38959714  0.12788871  0.07988687    -0.57600
C523        C  0.50053916  0.18956149  0.04794937     0.75100
O524        O  0.50986744  0.12297193  0.10046740    -0.58700
C525        C  0.37857533  0.10723279  0.09481764     0.75000
C526        C  0.42962953  0.03489497  0.06004118     0.77400
Cd527      Cd  0.45876321  0.12287220  0.07650493     1.37500
O528        O  0.46124276  0.17776516  0.05406196    -0.57600
O529        O  0.40543755  0.05292432  0.05939960    -0.56400
C530        C  0.52653701  0.16494025  0.10479023     0.77400
O531        O  0.46786173  0.05772409  0.06851295    -0.58700
O532        O  0.52034542  0.17064511  0.05519713    -0.57200
O533        O  0.40480092  0.09425436  0.10101950    -0.57200
O534        O  0.51137890  0.18654452  0.09614421    -0.56400
C535        C  0.33329612  0.82129957  0.99709565     0.80500
N536        N  0.34652783  0.85727982  0.00819573    -0.77800
C537        C  0.38010105  0.86897697  0.02083214     0.82900
N538        N  0.40006857  0.84346784  0.02250843    -0.77800
C539        C  0.38631892  0.80669115  0.01170613     0.83000
N540        N  0.35320853  0.79595778  0.99909507    -0.79500
C541        C  0.40805806  0.77931840  0.01284871     0.03400
C542        C  0.37989489  0.73049901  0.01268612    -0.12800
C543        C  0.39983699  0.70372671  0.01145368     0.00900
C544        C  0.44850432  0.72635040  0.01030779    -0.11300
C545        C  0.47694678  0.77523444  0.01041997     0.03400
C546        C  0.45653868  0.80156920  0.01187289    -0.10700
H547        H  0.34232660  0.71346315  0.01290933     0.09000
H548        H  0.46419435  0.70597656  0.00896324     0.06500
H549        H  0.47818045  0.83928809  0.01163797     0.06300
C550        C  0.12090722  0.06871292  0.14275914     0.03400
C551        C  0.07223496  0.04046112  0.14223994    -0.12800
C552        C  0.04528145  0.06012068  0.14362598     0.00900
C553        C  0.06753204  0.10871360  0.14509359    -0.11300
C554        C  0.11634283  0.13735351  0.14535998     0.03400
C555        C  0.14289067  0.11714099  0.14421401    -0.10700
H556        H  0.05539509  0.00297680  0.14142842     0.09000
H557        H  0.04696991  0.12421241  0.14635575     0.06500
H558        H  0.18058866  0.13897740  0.14488133     0.06300
C559        C  0.35872558  0.91740532  0.03676427    -0.05500
C560        C  0.39380109  0.90933092  0.03245331     0.00400
C561        C  0.44027217  0.94137357  0.03818471    -0.08200
C562        C  0.44991739  0.98139118  0.04732875    -0.05600
C563        C  0.41507121  0.99037932  0.05103636     0.00400
C564        C  0.36820320  0.95713927  0.04598917    -0.08100
C565        C  0.32785564  0.96258583  0.05035577     0.62300
H566        H  0.32332024  0.89217480  0.03260292     0.13000
H567        H  0.48535681  0.00662956  0.05142523     0.13000
C568        C  0.47992750  0.93444948  0.03440988     0.62500
F569        F  0.28512822  0.92342106  0.04595776    -0.22600
F570        F  0.33176428  0.99990485  0.04094066    -0.20000
F571        F  0.32783963  0.96957789  0.06838112    -0.19600
F572        F  0.48233477  0.92940503  0.01636252    -0.19700
F573        F  0.47279985  0.89524589  0.04339280    -0.20000
F574        F  0.52263238  0.97185971  0.03992802    -0.22700
C575        C  0.34087133  0.09666233  0.12347396    -0.05500
C576        C  0.33765250  0.09832415  0.10490121     0.00400
C577        C  0.29523847  0.08842254  0.09679421    -0.08200
C578        C  0.25629784  0.07297367  0.10765724    -0.05600
C579        C  0.25891352  0.06793686  0.12610757     0.00400
C580        C  0.30236535  0.08232146  0.13428990    -0.08100
C581        C  0.30833597  0.08206992  0.15429314     0.62300
H582        H  0.37385728  0.10567829  0.12952457     0.13000
H583        H  0.22298071  0.06335579  0.10176802     0.13000
C584        C  0.29052261  0.09292396  0.07687265     0.62500
F585        F  0.35483085  0.10721395  0.15939119    -0.22600
F586        F  0.28923712  0.03681489  0.16021967    -0.20000
F587        F  0.28669702  0.10166540  0.16236639    -0.19600
F588        F  0.30161043  0.06490244  0.06804535    -0.19700
F589        F  0.32010294  0.13886145  0.07162036    -0.20000
F590        F  0.24566760  0.07971242  0.07187723    -0.22700
C591        C  0.83573457  0.83481751  0.12377914    -0.05500
C592        C  0.84668937  0.83705078  0.10575039     0.00400
C593        C  0.88476355  0.87919314  0.09868957    -0.08200
C594        C  0.90935654  0.91787405  0.10990925    -0.05600
C595        C  0.89751893  0.91586109  0.12778018     0.00400
C596        C  0.86083942  0.87323668  0.13504060    -0.08100
C597        C  0.84870817  0.86751431  0.15463136     0.62300
H598        H  0.80703674  0.80237153  0.12907356     0.13000
H599        H  0.93776518  0.95061079  0.10468117     0.13000
C600        C  0.89915030  0.88414034  0.07940662     0.62500
F601        F  0.81908279  0.82113988  0.15940278    -0.22600
F602        F  0.82668402  0.89069352  0.15836515    -0.20000
F603        F  0.88876445  0.88515647  0.16493147    -0.19600
F604        F  0.86161893  0.87273605  0.06830953    -0.19700
F605        F  0.91506120  0.85508835  0.07623010    -0.20000
F606        F  0.93465201  0.92920201  0.07520094    -0.22700
C607        C  0.60641054  0.74052361  0.02681301    -0.05500
C608        C  0.62466777  0.78862004  0.02579753     0.00400
C609        C  0.66643032  0.81984088  0.03512994    -0.08200
C610        C  0.68831577  0.80147782  0.04522177    -0.05600
C611        C  0.67066050  0.75348124  0.04601378     0.00400
C612        C  0.62908908  0.72226160  0.03654314    -0.08100
C613        C  0.60937447  0.67022747  0.03620295     0.62300
H614        H  0.57441146  0.71729940  0.01960684     0.13000
H615        H  0.72006402  0.82485181  0.05252765     0.13000
C616        C  0.68767104  0.87223817  0.03477204     0.62500
F617        F  0.57246488  0.64745743  0.02431602    -0.22600
F618        F  0.59352581  0.65103973  0.05289043    -0.20000
F619        F  0.64345125  0.66237090  0.03112132    -0.19600
F620        F  0.65506916  0.88198018  0.04005325    -0.19700
F621        F  0.70241694  0.88974140  0.01782667    -0.20000
F622        F  0.72600921  0.89534794  0.04601660    -0.22700
C623        C  0.13963127  0.35308357  0.11315834    -0.05500
C624        C  0.09171927  0.32946935  0.10920034     0.00400
C625        C  0.06220844  0.28270241  0.11506216    -0.08200
C626        C  0.08202851  0.26115462  0.12450999    -0.05600
C627        C  0.12983306  0.28494810  0.12874241     0.00400
C628        C  0.15943251  0.33195431  0.12291206    -0.08100
C629        C  0.21157593  0.36023426  0.12683698     0.62300
H630        H  0.16168297  0.38886763  0.10862558     0.13000
H631        H  0.05979452  0.22547567  0.12910163     0.13000
C632        C  0.00981845  0.25615689  0.11215451     0.62500
F633        F  0.23416332  0.40194575  0.11739466    -0.22600
F634        F  0.23135594  0.33539265  0.12224789    -0.20000
F635        F  0.21929665  0.37072965  0.14470444    -0.19600
F636        F  0.99941630  0.24798347  0.09425284    -0.19700
F637        F  0.99249431  0.28181277  0.11848530    -0.20000
F638        F  0.98737808  0.21348802  0.12094620    -0.22700
C639        C  0.25186484  0.51373801  0.03820596    -0.05500
C640        C  0.25906193  0.55302379  0.02866022     0.00400
C641        C  0.22302664  0.56230459  0.02786372    -0.08200
C642        C  0.18226771  0.53367455  0.03770732    -0.05600
C643        C  0.17536786  0.49483109  0.04742349     0.00400
C644        C  0.21027105  0.48394078  0.04744095    -0.08100
C645        C  0.20393242  0.44137173  0.05726805     0.62300
H646        H  0.27913019  0.50630671  0.03821149     0.13000
H647        H  0.15493924  0.54102978  0.03766742     0.13000
C648        C  0.22649351  0.60094259  0.01614755     0.62500
F649        F  0.24414330  0.44040930  0.05730968    -0.22600
F650        F  0.16898247  0.40133362  0.04912128    -0.20000
F651        F  0.19219876  0.44134603  0.07474311    -0.19600
F652        F  0.24075382  0.59882810  0.99931865    -0.19700
F653        F  0.25809789  0.64368092  0.02349413    -0.20000
F654        F  0.18399198  0.59723329  0.01437045    -0.22700
C655        C  0.25306248  0.77479243  0.29127230    -0.05500
C656        C  0.23289214  0.72666459  0.29381192     0.00400
C657        C  0.19160176  0.69500665  0.28442858    -0.08200
C658        C  0.16913336  0.71263889  0.27432760    -0.05600
C659        C  0.18771276  0.76068872  0.27249511     0.00400
C660        C  0.23149279  0.79263095  0.28053180    -0.08100
C661        C  0.25496644  0.84500545  0.27824918     0.62300
H662        H  0.28564974  0.79838271  0.29806326     0.13000
H663        H  0.13646661  0.68860134  0.26767486     0.13000
C664        C  0.17224682  0.64302481  0.28434901     0.62500
F665        F  0.29631039  0.86919076  0.28786306    -0.22600
F666        F  0.22582361  0.85874436  0.28403166    -0.20000
F667        F  0.26521973  0.85722066  0.26054896    -0.19600
F668        F  0.15242672  0.62323930  0.30054227    -0.19700
F669        F  0.20759492  0.63549522  0.28105637    -0.20000
F670        F  0.13841280  0.62059394  0.27127519    -0.22700
C671        C  0.09747707  0.88838428  0.18881808    -0.05500
C672        C  0.13479870  0.89284915  0.19906718     0.00400
C673        C  0.18105470  0.92806261  0.19440687    -0.08200
C674        C  0.18763409  0.95863515  0.18029115    -0.05600
C675        C  0.15042181  0.95514204  0.17043220     0.00400
C676        C  0.10429033  0.91860503  0.17449492    -0.08100
C677        C  0.06219625  0.91075813  0.16383754     0.62300
H678        H  0.06233081  0.86100518  0.19223231     0.13000
H679        H  0.22239896  0.98691931  0.17723630     0.13000
C680        C  0.22362291  0.93459676  0.20429286     0.62500
F681        F  0.02234194  0.86832526  0.16797951    -0.22600
F682        F  0.06998245  0.91103447  0.14587112    -0.20000
F683        F  0.05378199  0.94528810  0.16745948    -0.19600
F684        F  0.22548433  0.89516558  0.20261282    -0.19700
F685        F  0.22150207  0.94282045  0.22204195    -0.20000
F686        F  0.26477120  0.97198645  0.19768049    -0.22700
C687        C  0.01191189  0.47459957  0.13457096    -0.05500
C688        C  0.98795497  0.45583840  0.11848100     0.00400
C689        C  0.94412970  0.45091523  0.11548498    -0.08200
C690        C  0.92588246  0.46488632  0.12879805    -0.05600
C691        C  0.94946376  0.48307738  0.14496103     0.00400
C692        C  0.99311286  0.48769722  0.14806050    -0.08100
C693        C  0.01879581  0.50422453  0.16576381     0.62300
H694        H  0.04517060  0.47795151  0.13664614     0.13000
H695        H  0.89270429  0.46169632  0.12667694     0.13000
C696        C  0.91693051  0.43202569  0.09820234     0.62500
F697        F  0.05635500  0.49883247  0.16690198    -0.22600
F698        F  0.98896621  0.47864116  0.17949347    -0.20000
F699        F  0.03554538  0.55094903  0.16792703    -0.19600
F700        F  0.90213280  0.38563569  0.09657174    -0.19700
F701        F  0.94479915  0.45726084  0.08399169    -0.20000
F702        F  0.87783766  0.43499422  0.09746595    -0.22700
C703        C  0.95533812  0.58664147  0.20796777    -0.05500
C704        C  0.95798325  0.59138271  0.18944330     0.00400
C705        C  0.98735769  0.63588317  0.18157611    -0.08200
C706        C  0.01349731  0.67452909  0.19274740    -0.05600
C707        C  0.01078032  0.66986562  0.21137759     0.00400
C708        C  0.98172875  0.62502572  0.21914627    -0.08100
C709        C  0.97960135  0.61718399  0.23911858     0.62300
H710        H  0.93277756  0.55217191  0.21363889     0.13000
H711        H  0.03625420  0.70884753  0.18696886     0.13000
C712        C  0.99042732  0.64257744  0.16151725     0.62500
F713        F  0.95514619  0.57025082  0.24358754    -0.22600
F714        F  0.95755716  0.63683338  0.24676579    -0.20000
F715        F  0.02418630  0.63712609  0.24613171    -0.19600
F716        F  0.94620690  0.62015817  0.15399594    -0.19700
F717        F  0.01476289  0.62442958  0.15463815    -0.20000
F718        F  0.01305251  0.68919761  0.15668083    -0.22700
C719        C  0.39968210  0.52680811  0.27913541    -0.05500
C720        C  0.43673594  0.52501709  0.27218559     0.00400
C721        C  0.48320934  0.56170064  0.27559117    -0.08200
C722        C  0.49120226  0.59761027  0.28685416    -0.05600
C723        C  0.45445917  0.59874082  0.29435359     0.00400
C724        C  0.40778925  0.56330553  0.29028835    -0.08100
C725        C  0.36661966  0.56252437  0.29819332     0.62300
H726        H  0.36503417  0.49914704  0.27624110     0.13000
H727        H  0.52641979  0.62549538  0.28976967     0.13000
C728        C  0.52422123  0.56467891  0.26660553     0.62500
F729        F  0.32475129  0.52195470  0.29414600    -0.22600
F730        F  0.36446204  0.59958231  0.29154920    -0.20000
F731        F  0.37129709  0.56546893  0.31649067    -0.19600
F732        F  0.51561506  0.55942068  0.24852880    -0.19700
F733        F  0.53082143  0.53028668  0.27316125    -0.20000
F734        F  0.56517635  0.60732027  0.26929952    -0.22700
C735        C  0.25004541  0.30639245  0.20669819    -0.05500
C736        C  0.29755227  0.32836122  0.20285525     0.00400
C737        C  0.31146030  0.32793407  0.18526204    -0.08200
C738        C  0.27682486  0.30440078  0.17210766    -0.05600
C739        C  0.22946165  0.28128453  0.17615034     0.00400
C740        C  0.21555138  0.28246490  0.19356735    -0.08100
C741        C  0.16434414  0.25833509  0.19809807     0.62300
H742        H  0.24014524  0.30737077  0.22018069     0.13000
H743        H  0.28637963  0.30346289  0.15857270     0.13000
C744        C  0.36251276  0.35300074  0.18029366     0.62500
F745        F  0.15799579  0.26488525  0.21562235    -0.22600
F746        F  0.14249942  0.21097459  0.19532197    -0.20000
F747        F  0.14343702  0.27583937  0.18740159    -0.19600
F748        F  0.38265873  0.33076314  0.18820518    -0.19700
F749        F  0.38576152  0.39870787  0.18590285    -0.20000
F750        F  0.36808804  0.35358695  0.16211441    -0.22700
C751        C  0.67200748  0.56391852  0.14301053    -0.05500
C752        C  0.68890011  0.53421825  0.14189121     0.00400
C753        C  0.71263336  0.53587194  0.12629411    -0.08200
C754        C  0.72187036  0.56988161  0.11321463    -0.05600
C755        C  0.70650875  0.60067152  0.11467213     0.00400
C756        C  0.67993172  0.59687228  0.12961573    -0.08100
C757        C  0.66116077  0.62821550  0.13182354     0.62300
H758        H  0.65303878  0.56174678  0.15472019     0.13000
H759        H  0.74156270  0.57277606  0.10161821     0.13000
C760        C  0.72728122  0.50149541  0.12296347     0.62500
F761        F  0.63974119  0.62111736  0.14803560    -0.22600
F762        F  0.62850488  0.61910844  0.11862511    -0.20000
F763        F  0.69720153  0.67446414  0.13082091    -0.19600
F764        F  0.69070482  0.45649392  0.12650648    -0.19700
F765        F  0.76527963  0.51185944  0.13359343    -0.20000
F766        F  0.73975869  0.50303721  0.10546983    -0.22700
C767        C  0.52951361  0.39648278  0.21235434    -0.05500
C768        C  0.52296590  0.43300383  0.21591933     0.00400
C769        C  0.55557901  0.47844952  0.20939761    -0.08200
C770        C  0.59107198  0.48469190  0.19824808    -0.05600
C771        C  0.59717467  0.44809078  0.19438094     0.00400
C772        C  0.56688486  0.40339840  0.20206576    -0.08100
C773        C  0.57350427  0.36310958  0.19948430     0.62300
H774        H  0.50496627  0.36221131  0.21778405     0.13000
H775        H  0.61540950  0.51897608  0.19277102     0.13000
C776        C  0.55575204  0.52091886  0.21533880     0.62500
F777        F  0.53754813  0.32195181  0.20678229    -0.22600
F778        F  0.61445788  0.37285083  0.20774717    -0.20000
F779        F  0.57521400  0.35610654  0.18157166    -0.19600
F780        F  0.55554647  0.52105356  0.23367420    -0.19700
F781        F  0.51725250  0.52022318  0.20859024    -0.20000
F782        F  0.59508748  0.56211753  0.20975183    -0.22700
C783        C  0.64428956  0.02045597  0.27254716    -0.05500
C784        C  0.66580961  0.99713971  0.26713270     0.00400
C785        C  0.64638417  0.94994514  0.27232175    -0.08200
C786        C  0.60844485  0.92921755  0.28395912    -0.05600
C787        C  0.58835603  0.95328318  0.29012444     0.00400
C788        C  0.60540323  0.99927570  0.28373228    -0.08100
C789        C  0.58312406  0.02630686  0.28846213     0.62300
H790        H  0.65883859  0.05617504  0.26814041     0.13000
H791        H  0.59455674  0.89382895  0.28860610     0.13000
C792        C  0.66591242  0.92163953  0.26605163     0.62500
F793        F  0.59933914  0.06585362  0.27793298    -0.22600
F794        F  0.59343063  0.04027907  0.30594237    -0.20000
F795        F  0.53531889  0.99887543  0.28602743    -0.19600
F796        F  0.71210804  0.94280069  0.27125715    -0.19700
F797        F  0.66230638  0.91831849  0.24774701    -0.20000
F798        F  0.64197875  0.87675136  0.27300841    -0.22700
C799        C  0.87654514  0.07356204  0.18286977    -0.05500
C800        C  0.85441364  0.04199723  0.19710817     0.00400
C801        C  0.85427060  0.00007241  0.19783918    -0.08200
C802        C  0.87671188  0.99165780  0.18437891    -0.05600
C803        C  0.89979215  0.02377976  0.17058024     0.00400
C804        C  0.89933072  0.06508766  0.16950094    -0.08100
C805        C  0.92231974  0.09960793  0.15420936     0.62300
H806        H  0.87635640  0.10531609  0.18239006     0.13000
H807        H  0.87748091  0.96020069  0.18473389     0.13000
C808        C  0.83230861  0.96496611  0.21300214     0.62500
F809        F  0.91110210  0.13322286  0.15399954    -0.22600
F810        F  0.90784927  0.07654032  0.13818131    -0.20000
F811        F  0.97018266  0.12188648  0.15574187    -0.19600
F812        F  0.78451792  0.94440474  0.21248163    -0.19700
F813        F  0.85001649  0.98700382  0.22907788    -0.20000
F814        F  0.84131886  0.92986913  0.21199125    -0.22700
C815        C  0.63016138  0.25284571  0.13290916    -0.05500
C816        C  0.62581063  0.22594461  0.14804367     0.00400
C817        C  0.58844199  0.17861680  0.14891332    -0.08200
C818        C  0.55707767  0.16004263  0.13439626    -0.05600
C819        C  0.56140337  0.18724878  0.11935080     0.00400
C820        C  0.59878333  0.23451988  0.11851100    -0.08100
C821        C  0.60686307  0.26543012  0.10232487     0.62300
H822        H  0.65902464  0.28876841  0.13234576     0.13000
H823        H  0.52842523  0.12397994  0.13476683     0.13000
C824        C  0.58064060  0.14804548  0.16515069     0.62500
F825        F  0.64863141  0.30802432  0.10351465    -0.22600
F826        F  0.57158935  0.27412243  0.10071142    -0.20000
F827        F  0.60807309  0.24375239  0.08719645    -0.19600
F828        F  0.58179214  0.17080095  0.18035015    -0.19700
F829        F  0.61483095  0.13772219  0.16626013    -0.20000
F830        F  0.53787267  0.10636852  0.16442315    -0.22700
C831        C  0.73506472  0.19068889  0.18340188    -0.05500
C832        C  0.73568039  0.22689578  0.19237071     0.00400
C833        C  0.75299971  0.23692287  0.21014545    -0.08200
C834        C  0.76758224  0.20916864  0.21835828    -0.05600
C835        C  0.76500675  0.17185922  0.20960644     0.00400
C836        C  0.74979790  0.16312065  0.19163244    -0.08100
C837        C  0.74986109  0.12557024  0.18099829     0.62300
H838        H  0.72246268  0.18376879  0.16978967     0.13000
H839        H  0.77998020  0.21559460  0.23199559     0.13000
C840        C  0.75442990  0.27514949  0.22083389     0.62500
F841        F  0.74292940  0.12946697  0.16303165    -0.22600
F842        F  0.71455473  0.08194421  0.18672007    -0.20000
F843        F  0.79230749  0.12930127  0.18306507    -0.19600
F844        F  0.71084097  0.26917617  0.22071006    -0.19700
F845        F  0.78665493  0.31833810  0.21369779    -0.20000
F846        F  0.76722226  0.27467415  0.23838126    -0.22700
C847        C  0.10863357  0.87873251  0.88855251    -0.05500
C848        C  0.10863370  0.84317935  0.87932711     0.00400
C849        C  0.09686920  0.83761643  0.86095230    -0.08200
C850        C  0.08186231  0.86517701  0.85297233    -0.05600
C851        C  0.07830885  0.89818893  0.86245479     0.00400
C852        C  0.09387949  0.90668250  0.88045041    -0.08100
C853        C  0.09418785  0.94405802  0.89127178     0.62300
H854        H  0.11895849  0.88351183  0.90242612     0.13000
H855        H  0.07181171  0.86040391  0.83910430     0.13000
C856        C  0.09908646  0.80240078  0.84961894     0.62500
F857        F  0.10763089  0.94387149  0.90875623    -0.22600
F858        F  0.05014648  0.93694996  0.89131018    -0.20000
F859        F  0.12539511  0.98748283  0.88405863    -0.19600
F860        F  0.06215852  0.75803426  0.85366683    -0.19700
F861        F  0.14069340  0.80494964  0.85262682    -0.20000
F862        F  0.09637688  0.81045629  0.83165625    -0.22700
C863        C  0.25645518  0.82620051  0.96029812    -0.05500
C864        C  0.23274990  0.78019286  0.95407992     0.00400
C865        C  0.24127657  0.74754476  0.96259828    -0.08200
C866        C  0.27345083  0.76281190  0.97679624    -0.05600
C867        C  0.29775742  0.80902096  0.98277574     0.00400
C868        C  0.28922121  0.84159504  0.97430808    -0.08100
C869        C  0.31515945  0.89274744  0.97936552     0.62300
H870        H  0.24935003  0.85064751  0.95393731     0.13000
H871        H  0.27997822  0.73823581  0.98343755     0.13000
C872        C  0.21719117  0.69681647  0.95705773     0.62500
F873        F  0.30545644  0.91870500  0.96774086    -0.22600
F874        F  0.36271008  0.91173895  0.97901036    -0.20000
F875        F  0.30222787  0.89703129  0.99614275    -0.19600
F876        F  0.22731941  0.69440983  0.93957909    -0.19700
F877        F  0.16958085  0.67496200  0.95902405    -0.20000
F878        F  0.23148330  0.67219050  0.96730208    -0.22700
C879        C  0.79632445  0.63102026  0.00255709    -0.05500
C880        C  0.83035686  0.62117322  0.00703121     0.00400
C881        C  0.85327989  0.63458099  0.02373160    -0.08200
C882        C  0.83924456  0.65538042  0.03594304    -0.05600
C883        C  0.80363979  0.66351855  0.03179753     0.00400
C884        C  0.78308882  0.65293565  0.01453967    -0.08100
C885        C  0.74848656  0.66587068  0.00849268     0.62300
H886        H  0.77992446  0.62106578  0.98954477     0.13000
H887        H  0.85523452  0.66437119  0.04903756     0.13000
C888        C  0.89175951  0.62619319  0.02865734     0.62500
F889        F  0.74048769  0.66096111  0.99033165    -0.22600
F890        F  0.76565020  0.71191101  0.01251860    -0.20000
F891        F  0.70639125  0.63736165  0.01682730    -0.19600
F892        F  0.92808700  0.65007601  0.01689572    -0.19700
F893        F  0.87489825  0.57909678  0.02790722    -0.20000
F894        F  0.90913685  0.64132066  0.04563151    -0.22700
C895        C  0.95162435  0.59795260  0.95644622    -0.05500
C896        C  0.92748851  0.62004094  0.95971808     0.00400
C897        C  0.94183537  0.66333552  0.95127458    -0.08200
C898        C  0.98127268  0.68383438  0.94047003    -0.05600
C899        C  0.00621812  0.66243060  0.93753702     0.00400
C900        C  0.99087559  0.61827808  0.94544744    -0.08100
C901        C  0.01619840  0.59315743  0.94287342     0.62300
H902        H  0.93966076  0.56458550  0.96282584     0.13000
H903        H  0.99315536  0.71729363  0.93417822     0.13000
C904        C  0.91488885  0.68715154  0.95292883     0.62500
F905        F  0.99674020  0.55220990  0.95276703    -0.22600
F906        F  0.06230175  0.62140767  0.94813062    -0.20000
F907        F  0.01386199  0.58182782  0.92519936    -0.19600
F908        F  0.91870840  0.70276308  0.97004873    -0.19700
F909        F  0.86849523  0.65612609  0.94867328    -0.20000
F910        F  0.93146266  0.72531479  0.94159046    -0.22700
C911        C  0.91642459  0.14761182  0.86291093    -0.05500
C912        C  0.92433414  0.11168566  0.86013235     0.00400
C913        C  0.89396017  0.06715155  0.86795484    -0.08200
C914        C  0.85640829  0.06044175  0.87810961    -0.05600
C915        C  0.84744440  0.09596675  0.88021543     0.00400
C916        C  0.87845328  0.14070001  0.87264340    -0.08100
C917        C  0.87219012  0.18144068  0.87472313     0.62300
H918        H  0.94016475  0.18154660  0.85705358     0.13000
H919        H  0.83270583  0.02664504  0.88406245     0.13000
C920        C  0.89929127  0.02614303  0.86494390     0.62500
F921        F  0.91016316  0.22296195  0.86858272    -0.22600
F922        F  0.86693819  0.18705947  0.89245484    -0.20000
F923        F  0.83343900  0.17336967  0.86512359    -0.19600
F924        F  0.93974654  0.03402019  0.87305321    -0.19700
F925        F  0.90070119  0.02001853  0.84692050    -0.20000
F926        F  0.86251226  0.98502132  0.87191224    -0.22700
C927        C  0.64061109  0.96523082  0.96534051    -0.05500
C928        C  0.66605886  0.95928182  0.95233611     0.00400
C929        C  0.67028963  0.91984525  0.95362770    -0.08200
C930        C  0.64775608  0.88742892  0.96761761    -0.05600
C931        C  0.62100348  0.89270872  0.98014866     0.00400
C932        C  0.61842812  0.93294409  0.97935935    -0.08100
C933        C  0.59383794  0.94271850  0.99357534     0.62300
H934        H  0.63816340  0.99568906  0.96444691     0.13000
H935        H  0.64987760  0.85675766  0.96865643     0.13000
C936        C  0.69661528  0.91058063  0.94001270     0.62500
F937        F  0.60151006  0.98692817  0.99172307    -0.22600
F938        F  0.61013213  0.93950111  0.01020401    -0.20000
F939        F  0.54637971  0.91097437  0.99249495    -0.19600
F940        F  0.74330300  0.94552901  0.94048815    -0.19700
F941        F  0.67835386  0.90874436  0.92323392    -0.20000
F942        F  0.69343260  0.86867738  0.94322496    -0.22700
C943        C  0.89760206  0.33236350  0.01129974    -0.05500
C944        C  0.87389266  0.35600494  0.01176130     0.00400
C945        C  0.88235664  0.38560964  0.02639610    -0.08200
C946        C  0.91556831  0.39168318  0.03933813    -0.05600
C947        C  0.94013183  0.36924175  0.03847194     0.00400
C948        C  0.93028690  0.33807710  0.02444473    -0.08100
C949        C  0.95468459  0.31167511  0.02303472     0.62300
H950        H  0.89078204  0.30939986  0.00033561     0.13000
H951        H  0.92316954  0.41482449  0.05032490     0.13000
C952        C  0.85725658  0.41120884  0.02867118     0.62500
F953        F  0.94234107  0.28593813  0.00762599    -0.22600
F954        F  0.94264520  0.28109867  0.03727699    -0.20000
F955        F  0.00243653  0.34263751  0.02299195    -0.19600
F956        F  0.80952641  0.38007573  0.02788639    -0.19700
F957        F  0.87079684  0.44501028  0.01553362    -0.20000
F958        F  0.86750225  0.43338183  0.04486186    -0.22700
C959        C  0.81305803  0.26672115  0.94938766    -0.05500
C960        C  0.77943098  0.26190210  0.96114154     0.00400
C961        C  0.73514771  0.22025840  0.96167408    -0.08200
C962        C  0.72586938  0.18406654  0.95019727    -0.05600
C963        C  0.75974850  0.18836554  0.93851236     0.00400
C964        C  0.80404037  0.23074442  0.93788159    -0.08100
C965        C  0.84132451  0.23886229  0.92489854     0.62300
H966        H  0.84676771  0.29914925  0.94938975     0.13000
H967        H  0.69226946  0.15160888  0.95056495     0.13000
C968        C  0.69853327  0.21403787  0.97459669     0.62500
F969        F  0.87882006  0.28460383  0.92501180    -0.22600
F970        F  0.82283293  0.22913135  0.90785392    -0.20000
F971        F  0.85798297  0.21065821  0.92935326    -0.19600
F972        F  0.68573018  0.24555915  0.97046879    -0.19700
F973        F  0.71631600  0.22168188  0.99175467    -0.20000
F974        F  0.65898679  0.16959451  0.97398148    -0.22700
C975        C  0.30301316  0.30747239  0.88611910    -0.05500
C976        C  0.33474904  0.34907518  0.87724307     0.00400
C977        C  0.33820882  0.34919218  0.85848300    -0.08200
C978        C  0.31106378  0.30680294  0.84940253    -0.05600
C979        C  0.28048661  0.26483445  0.85837504     0.00400
C980        C  0.27587238  0.26512876  0.87708148    -0.08100
C981        C  0.24391625  0.22091427  0.88770300     0.62300
H982        H  0.30062521  0.30815250  0.90040473     0.13000
H983        H  0.31387562  0.30600635  0.83514185     0.13000
C984        C  0.37003758  0.39364475  0.84799236     0.62500
F985        F  0.25023865  0.22825725  0.90582989    -0.22600
F986        F  0.19793363  0.20520240  0.88371023    -0.20000
F987        F  0.25278439  0.18681497  0.88375194    -0.19600
F988        F  0.41600354  0.40803024  0.85122667    -0.19700
F989        F  0.36287989  0.42838583  0.85283941    -0.20000
F990        F  0.36182693  0.38717627  0.82988422    -0.22700
C991        C  0.41264209  0.57791972  0.98002740    -0.05500
C992        C  0.36540726  0.55924423  0.98361311     0.00400
C993        C  0.33088698  0.52161362  0.97324163    -0.08200
C994        C  0.34519509  0.50477789  0.95950377    -0.05600
C995        C  0.39241500  0.52407534  0.95561117     0.00400
C996        C  0.42706316  0.56101082  0.96632629    -0.08100
C997        C  0.47907188  0.58285298  0.96360050     0.62300
H998        H  0.43848981  0.60648852  0.98808580     0.13000
H999        H  0.31908449  0.47632780  0.95148279     0.13000
C1000       C  0.27903918  0.49974828  0.97617646     0.62500
F1001       F  0.50581148  0.61593546  0.97628061    -0.22600
F1002       F  0.49181064  0.60484271  0.94716585    -0.20000
F1003       F  0.48967214  0.54880416  0.96475939    -0.19600
F1004       F  0.26850942  0.53387053  0.97600215    -0.19700
F1005       F  0.26671373  0.47610121  0.99229474    -0.20000
F1006       F  0.25209687  0.46817177  0.96309701    -0.22700
C1007       C  0.51253623  0.25974932  0.03238445    -0.05500
C1008       C  0.52215779  0.22437316  0.03336450     0.00400
C1009       C  0.55143516  0.22316777  0.02051734    -0.08200
C1010       C  0.56990102  0.25766103  0.00711835    -0.05600
C1011       C  0.56085298  0.29339158  0.00633176     0.00400
C1012       C  0.53202592  0.29492218  0.01924373    -0.09300
C1013       C  0.52346969  0.33443910  0.01971720     0.62300
H1014       H  0.49035057  0.26028927  0.04234780     0.13000
H1015       H  0.59268442  0.25768539  0.99728216     0.13000
C1016       C  0.56393497  0.18637216  0.02090910     0.62500
F1017       F  0.49922286  0.33194572  0.03467501    -0.22600
F1018       F  0.49757497  0.33252010  0.00497829    -0.20000
F1019       F  0.56554984  0.37683115  0.01989524    -0.19600
F1020       F  0.52410789  0.14231183  0.02230196    -0.19700
F1021       F  0.59327051  0.19400544  0.03523141    -0.20000
F1022       F  0.58661856  0.18768726  0.00564636    -0.22700
C1023       C  0.55333980  0.45564083  0.94392214    -0.05500
C1024       C  0.50865636  0.42134095  0.93790075     0.00400
C1025       C  0.49110367  0.37380863  0.94199557    -0.08200
C1026       C  0.51879173  0.36258996  0.95237258    -0.05600
C1027       C  0.56299345  0.39701159  0.95886947     0.00400
C1028       C  0.58055206  0.44456370  0.95470851    -0.08100
C1029       C  0.62634163  0.48386633  0.96238454     0.62300
H1030       H  0.56616385  0.49171188  0.94063641     0.13000
H1031       H  0.50563118  0.32647533  0.95573409     0.13000
C1032       C  0.44335859  0.33483801  0.93560755     0.62500
F1033       F  0.63210862  0.52697447  0.95928401    -0.22600
F1034       F  0.66319379  0.48441877  0.95470931    -0.20000
F1035       F  0.62753501  0.47791326  0.98057973    -0.19600
F1036       F  0.43693175  0.34119973  0.91781424    -0.19700
F1037       F  0.40925582  0.33438404  0.94546127    -0.20000
F1038       F  0.43807488  0.29162727  0.93746013    -0.22700
C1039       C  0.78994790  0.66320846  0.70996788    -0.05500
C1040       C  0.75500005  0.66442542  0.71913376     0.00400
C1041       C  0.70873949  0.62470501  0.71878028    -0.08200
C1042       C  0.69911448  0.58601293  0.70878996    -0.05600
C1043       C  0.73376725  0.58528421  0.69936778     0.00400
C1044       C  0.78001739  0.62443308  0.69983541    -0.08100
C1045       C  0.81799483  0.62634783  0.68890274     0.62300
H1046       H  0.82504788  0.69363938  0.71035799     0.13000
H1047       H  0.66394476  0.55564618  0.70815085     0.13000
C1048       C  0.66982307  0.62192365  0.72937841     0.62500
F1049       F  0.85940639  0.66925892  0.69001783    -0.22600
F1050       F  0.80423590  0.61860632  0.67123862    -0.20000
F1051       F  0.82639020  0.59272925  0.69488173    -0.19600
F1052       F  0.65913427  0.65330315  0.72262360    -0.19700
F1053       F  0.68367877  0.63170767  0.74696634    -0.20000
F1054       F  0.62946314  0.57800354  0.72878587    -0.22700
C1055       C  0.93087527  0.84404920  0.79148142    -0.05500
C1056       C  0.89040389  0.84536770  0.79258440     0.00400
C1057       C  0.88365192  0.86471089  0.80793106    -0.08200
C1058       C  0.91951807  0.88527106  0.82083821    -0.05600
C1059       C  0.96064009  0.88548470  0.81932404     0.00400
C1060       C  0.96608027  0.86350354  0.80463888    -0.08100
C1061       C  0.00907390  0.86115438  0.80263505     0.62300
H1062       H  0.93523872  0.82838580  0.77994200     0.13000
H1063       H  0.91599618  0.90200730  0.83223826     0.13000
C1064       C  0.83880305  0.86311689  0.81106427     0.62500
F1065       F  0.00934159  0.84242695  0.78652939    -0.22600
F1066       F  0.00997843  0.83309029  0.81596790    -0.20000
F1067       F  0.04883579  0.90532695  0.80367181    -0.19600
F1068       F  0.80096500  0.81808174  0.80899591    -0.19700
F1069       F  0.83506467  0.89259321  0.79920059    -0.20000
F1070       F  0.83730941  0.87700074  0.82806594    -0.22700
C1071       C  0.51295296  0.62480684  0.84526176    -0.05500
C1072       C  0.49375073  0.65260742  0.84619761     0.00400
C1073       C  0.46473443  0.64596147  0.86076366    -0.08200
C1074       C  0.45492518  0.61062539  0.87334216    -0.05600
C1075       C  0.47331389  0.58236447  0.87206361     0.00400
C1076       C  0.50323325  0.58969958  0.85786538    -0.08100
C1077       C  0.52290472  0.55916491  0.85536872     0.62300
H1078       H  0.53499549  0.62989442  0.83418430     0.13000
H1079       H  0.43216306  0.60436838  0.88432311     0.13000
C1080       C  0.44395938  0.67548277  0.86330167     0.62500
F1081       F  0.54880799  0.57070495  0.84003644    -0.22600
F1082       F  0.48679257  0.51301461  0.85420952    -0.20000
F1083       F  0.55184553  0.56427977  0.86950643    -0.19600
F1084       F  0.40987875  0.66454209  0.85052054    -0.19700
F1085       F  0.47834319  0.72234089  0.86209347    -0.20000
F1086       F  0.42353755  0.66775658  0.87977036    -0.22700
C1087       C  0.59875996  0.70740133  0.79167058    -0.05500
C1088       C  0.59670443  0.74510304  0.79750068     0.00400
C1089       C  0.63252025  0.79111110  0.79301638    -0.08200
C1090       C  0.66962822  0.79770652  0.78268403    -0.05600
C1091       C  0.67174231  0.75988401  0.77677593     0.00400
C1092       C  0.63527239  0.71371672  0.78114132    -0.08100
C1093       C  0.63296729  0.67103806  0.77401669     0.62300
H1094       H  0.57075856  0.67252497  0.79527459     0.13000
H1095       H  0.69766281  0.83272066  0.77927210     0.13000
C1096       C  0.63237570  0.83289593  0.79963164     0.62500
F1097       F  0.59120915  0.63026273  0.77800060    -0.22600
F1098       F  0.66845153  0.66719586  0.78132553    -0.20000
F1099       F  0.63676886  0.67475604  0.75574740    -0.19600
F1100       F  0.62750296  0.82984023  0.81788731    -0.19700
F1101       F  0.59585202  0.83410474  0.79182403    -0.20000
F1102       F  0.67327049  0.87445008  0.79559326    -0.22700
C1103       C  0.56715769  0.24864037  0.69972159    -0.05500
C1104       C  0.59065079  0.22608609  0.69606129     0.00400
C1105       C  0.57425792  0.18127406  0.70350049    -0.08200
C1106       C  0.53253131  0.15914096  0.71306265    -0.05600
C1107       C  0.50846261  0.18127938  0.71640861     0.00400
C1108       C  0.52700367  0.22763083  0.71022524    -0.08100
C1109       C  0.50526172  0.25523376  0.71471975     0.62300
H1110       H  0.58093113  0.28340778  0.69436419     0.13000
H1111       H  0.51861614  0.12421425  0.71828308     0.13000
C1112       C  0.60141055  0.15759124  0.70220016     0.62500
F1113       F  0.52759071  0.29852727  0.70637700    -0.22600
F1114       F  0.50863759  0.26239657  0.73283823    -0.20000
F1115       F  0.45894480  0.23130411  0.70946602    -0.19600
F1116       F  0.64741351  0.18820924  0.70713361    -0.19700
F1117       F  0.59935015  0.14313508  0.68502074    -0.20000
F1118       F  0.58367813  0.11883352  0.71328888    -0.22700
C1119       C  0.34429059  0.16413017  0.79835743    -0.05500
C1120       C  0.31571113  0.13663270  0.78426712     0.00400
C1121       C  0.26793482  0.12152864  0.78392409    -0.08200
C1122       C  0.25064535  0.13493431  0.79777055    -0.05600
C1123       C  0.27887651  0.16174774  0.81213893     0.00400
C1124       C  0.32655700  0.17602255  0.81261127    -0.08100
C1125       C  0.35809424  0.20106414  0.82844587     0.62300
H1126       H  0.38062808  0.17497293  0.79839422     0.13000
H1127       H  0.21430218  0.12404858  0.79750637     0.13000
C1128       C  0.23536929  0.09224146  0.76886479     0.62500
F1129       F  0.40074518  0.20522207  0.82717381    -0.22600
F1130       F  0.33725881  0.17626379  0.84386799    -0.20000
F1131       F  0.36643876  0.24547225  0.82953766    -0.19600
F1132       F  0.22874423  0.04836980  0.76935359    -0.19700
F1133       F  0.25419509  0.11359784  0.75271037    -0.20000
F1134       F  0.19203143  0.08658090  0.77004703    -0.22700
C1135       C  0.58186238  0.00664072  0.83758606    -0.05500
C1136       C  0.55271742  0.95770055  0.83811223     0.00400
C1137       C  0.55563944  0.93293415  0.85304595    -0.08200
C1138       C  0.58923062  0.95803705  0.86624638    -0.05600
C1139       C  0.61933870  0.00667773  0.86551530     0.00400
C1140       C  0.61498995  0.03183680  0.85108471    -0.08100
C1141       C  0.64536488  0.08463430  0.84958277     0.62300
H1142       H  0.57876832  0.02520293  0.82630636     0.13000
H1143       H  0.59214811  0.93934093  0.87749450     0.13000
C1144       C  0.52287744  0.88051976  0.85572464     0.62500
F1145       F  0.63562223  0.10142423  0.83428620    -0.22600
F1146       F  0.69176473  0.09862830  0.84919886    -0.20000
F1147       F  0.63784375  0.10452460  0.86389051    -0.19600
F1148       F  0.53151114  0.85682118  0.84328329    -0.19700
F1149       F  0.47711253  0.86857165  0.85429281    -0.20000
F1150       F  0.52852907  0.86570778  0.87232018    -0.22700
C1151       C  0.44231924  0.95606572  0.77430387    -0.05500
C1152       C  0.44706864  0.95973274  0.79285316     0.00400
C1153       C  0.43439862  0.98757711  0.80186045    -0.08200
C1154       C  0.41681795  0.01037145  0.79182216    -0.05600
C1155       C  0.41264034  0.00713575  0.77325644     0.00400
C1156       C  0.42633401  0.98026553  0.76424413    -0.08100
C1157       C  0.42598103  0.97863805  0.74408845     0.62300
H1158       H  0.45253858  0.93498884  0.76766792     0.13000
H1159       H  0.40716658  0.03198464  0.79839128     0.13000
C1160       C  0.43983603  0.99399336  0.82188941     0.62500
F1161       F  0.44906621  0.95818103  0.73809949    -0.22600
F1162       F  0.44796388  0.02331128  0.73696669    -0.20000
F1163       F  0.38049722  0.95303143  0.73788798    -0.19600
F1164       F  0.48658456  0.02146811  0.82637266    -0.19700
F1165       F  0.42033434  0.95123273  0.83047874    -0.20000
F1166       F  0.41814536  0.01573815  0.82803274    -0.22700
C1167       C  0.19474013  0.67621894  0.83968951    -0.05500
C1168       C  0.24302773  0.69527381  0.84081197     0.00400
C1169       C  0.26849572  0.72215304  0.85584654    -0.08200
C1170       C  0.24452456  0.72955646  0.86898095    -0.05600
C1171       C  0.19640699  0.71072591  0.86779992     0.00400
C1172       C  0.17083888  0.68366316  0.85288788    -0.08100
C1173       C  0.11891339  0.66357552  0.85061729     0.62300
H1174       H  0.17572760  0.65554451  0.82822523     0.13000
H1175       H  0.26340863  0.75033306  0.88043754     0.13000
C1176       C  0.32045848  0.74242906  0.85841843     0.62500
F1177       F  0.10278384  0.64494194  0.83391644    -0.22600
F1178       F  0.10952209  0.69808727  0.85279077    -0.20000
F1179       F  0.09462420  0.62844999  0.86305046    -0.19600
F1180       F  0.34530944  0.77830844  0.84631135    -0.19700
F1181       F  0.33017811  0.70815115  0.85620613    -0.20000
F1182       F  0.33585623  0.76043510  0.87524118    -0.22700
C1183       C  0.22184787  0.52241939  0.77844837    -0.05500
C1184       C  0.17349596  0.50285762  0.77728371     0.00400
C1185       C  0.15364449  0.52305686  0.78720155    -0.08200
C1186       C  0.18378068  0.56527073  0.79590496    -0.05600
C1187       C  0.23240315  0.58626671  0.79622159     0.00400
C1188       C  0.25160458  0.56289454  0.78819054    -0.08100
C1189       C  0.30270188  0.57909749  0.79016791     0.62300
H1190       H  0.23655120  0.50565780  0.77156187     0.13000
H1191       H  0.16921718  0.58258561  0.80248451     0.13000
C1192       C  0.10135276  0.50099304  0.78885851     0.62500
F1193       F  0.31093448  0.54550784  0.78469941    -0.22600
F1194       F  0.31640328  0.58824597  0.80781051    -0.20000
F1195       F  0.32968148  0.61874597  0.77995098    -0.19600
F1196       F  0.08126993  0.45647485  0.79594727    -0.19700
F1197       F  0.08179551  0.49927871  0.77238209    -0.20000
F1198       F  0.09075249  0.52585849  0.80002254    -0.22700
C1199       C  0.00837267  0.24122455  0.78565917    -0.05500
C1200       C  0.05624655  0.27344210  0.78309709     0.00400
C1201       C  0.08893001  0.26967134  0.79402849    -0.08200
C1202       C  0.07199655  0.23396166  0.80697142    -0.05600
C1203       C  0.02422265  0.20256745  0.80974708     0.00400
C1204       C  0.99158767  0.20612073  0.79886707    -0.08100
C1205       C  0.93927760  0.17335270  0.80097163     0.62300
H1206       H  0.98366919  0.24429580  0.77738282     0.13000
H1207       H  0.09639469  0.23100241  0.81551020     0.13000
C1208       C  0.14143586  0.30305274  0.79258181     0.62500
F1209       F  0.91456489  0.17897066  0.78735860    -0.22600
F1210       F  0.92566974  0.18228072  0.81676437    -0.20000
F1211       F  0.92737924  0.12753081  0.80086280    -0.19600
F1212       F  0.15349720  0.34743307  0.79713054    -0.19700
F1213       F  0.15556005  0.30337118  0.77547398    -0.20000
F1214       F  0.16580581  0.29045078  0.80383259    -0.22700
C1215       C  0.94525507  0.43560127  0.71012482    -0.05500
C1216       C  0.95859160  0.45303966  0.69268770     0.00400
C1217       C  0.99609106  0.45226632  0.68503310    -0.08200
C1218       C  0.02062099  0.43734643  0.69558137    -0.05600
C1219       C  0.00742917  0.42035133  0.71300672     0.00400
C1220       C  0.96824928  0.41829339  0.72029807    -0.08100
C1221       C  0.95089351  0.39845136  0.73877726     0.62300
H1222       H  0.91621842  0.43548640  0.71581606     0.13000
H1223       H  0.05026334  0.43816097  0.69010752     0.13000
C1224       C  0.00924927  0.46473384  0.66564716     0.62500
F1225       F  0.91477014  0.40327339  0.74379275    -0.22600
F1226       F  0.98667509  0.42129297  0.75110007    -0.20000
F1227       F  0.93458380  0.35140004  0.73911190    -0.19600
F1228       F  0.03188327  0.51240125  0.66310935    -0.19700
F1229       F  0.96970856  0.44245428  0.65498443    -0.20000
F1230       F  0.03868846  0.45091225  0.66021803    -0.22700
C1231       C  0.23821108  0.01360622  0.69935111    -0.05500
C1232       C  0.27842925  0.05879073  0.69958720     0.00400
C1233       C  0.28503966  0.09062407  0.68558276    -0.08200
C1234       C  0.25088667  0.07576957  0.67206909    -0.05600
C1235       C  0.21084479  0.03078526  0.67195811     0.00400
C1236       C  0.20386463  0.99918153  0.68592678    -0.08100
C1237       C  0.15929002  0.95146476  0.68726065     0.62300
H1238       H  0.23319034  0.98973571  0.71011319     0.13000
H1239       H  0.25500692  0.09947648  0.66135214     0.13000
C1240       C  0.32804449  0.13970547  0.68444365     0.62500
F1241       F  0.15829937  0.92778253  0.70262267    -0.22600
F1242       F  0.15527869  0.92473290  0.67295628    -0.20000
F1243       F  0.12141878  0.95633529  0.68742550    -0.19600
F1244       F  0.36759728  0.13762745  0.68438142    -0.19700
F1245       F  0.32981349  0.16563630  0.69868475    -0.20000
F1246       F  0.32805295  0.16300591  0.66912557    -0.22700
C1247       C  0.05776686  0.86066134  0.60897840    -0.05500
C1248       C  0.09335452  0.85818751  0.60103968     0.00400
C1249       C  0.13985901  0.89717699  0.60191266    -0.08200
C1250       C  0.14956127  0.93518213  0.61241367    -0.05600
C1251       C  0.11427649  0.93627669  0.62128419     0.00400
C1252       C  0.06725493  0.89942743  0.61890753    -0.08100
C1253       C  0.02725859  0.90021104  0.62708072     0.62300
H1254       H  0.02225427  0.83125029  0.60770989     0.13000
H1255       H  0.18518704  0.96423551  0.61402771     0.13000
C1256       C  0.17925536  0.89905017  0.59193909     0.62500
F1257       F  0.98489058  0.85901542  0.62426087    -0.22600
F1258       F  0.02442301  0.93606552  0.61951082    -0.20000
F1259       F  0.03426105  0.90664941  0.64520619    -0.19600
F1260       F  0.16547893  0.88439310  0.57463621    -0.19700
F1261       F  0.19178393  0.87077446  0.60042447    -0.20000
F1262       F  0.21825245  0.94384779  0.59117293    -0.22700
C1263       C  0.94606296  0.59650079  0.62062944    -0.05500
C1264       C  0.99479842  0.62556277  0.62071249     0.00400
C1265       C  0.02060681  0.62109202  0.63481347    -0.08200
C1266       C  0.99644319  0.58674155  0.64801498    -0.05600
C1267       C  0.94764234  0.55694713  0.64781294     0.00400
C1268       C  0.92168885  0.56222047  0.63380289    -0.08100
C1269       C  0.86871971  0.53220861  0.63222815     0.62300
H1270       H  0.92688487  0.60074396  0.60989187     0.13000
H1271       H  0.01589730  0.58304384  0.65877764     0.13000
C1272       C  0.07325065  0.65272300  0.63630665     0.62500
F1273       F  0.85242514  0.54034194  0.61642421    -0.22600
F1274       F  0.84900255  0.54215503  0.64590752    -0.20000
F1275       F  0.85366194  0.48547164  0.63273492    -0.19600
F1276       F  0.08628598  0.69887755  0.63526974    -0.19700
F1277       F  0.09375920  0.64332857  0.62276866    -0.20000
F1278       F  0.09017176  0.64633725  0.65228873    -0.22700
C1279       C  0.16900239  0.74007439  0.53022532    -0.05500
C1280       C  0.17545861  0.74989433  0.54840059     0.00400
C1281       C  0.22030300  0.76929614  0.55621687    -0.08200
C1282       C  0.25773537  0.77932928  0.54525088    -0.05600
C1283       C  0.25136424  0.77026647  0.52696334     0.00400
C1284       C  0.20605722  0.74900767  0.51936531    -0.08100
C1285       C  0.19623466  0.73353191  0.50015960     0.62300
H1286       H  0.13425561  0.72479011  0.52462229     0.13000
H1287       H  0.29258968  0.79530918  0.55080416     0.13000
C1288       C  0.22887874  0.78085624  0.57584166     0.62500
F1289       F  0.14921757  0.71099132  0.49593517    -0.22600
F1290       F  0.21043420  0.70291472  0.49733856    -0.20000
F1291       F  0.21974340  0.77143777  0.48883527    -0.19600
F1292       F  0.20687548  0.74012323  0.58583862    -0.19700
F1293       F  0.21170685  0.80812005  0.58032898    -0.20000
F1294       F  0.27587060  0.80514518  0.58017518    -0.22700
C1295       C  0.11877475  0.32120406  0.68473753    -0.05500
C1296       C  0.14792640  0.33825478  0.69983116     0.00400
C1297       C  0.18796839  0.33520784  0.70095278    -0.08200
C1298       C  0.19578949  0.31272412  0.68722855    -0.05600
C1299       C  0.16495996  0.29339818  0.67272352     0.00400
C1300       C  0.12673296  0.29892791  0.67106959    -0.08100
C1301       C  0.09445887  0.28125870  0.65496217     0.62300
H1302       H  0.08876846  0.32443848  0.68394432     0.13000
H1303       H  0.22534038  0.30871710  0.68795830     0.13000
C1304       C  0.22096547  0.35335645  0.71684587     0.62500
F1305       F  0.06393613  0.29646612  0.65470633    -0.22600
F1306       F  0.06857607  0.23310265  0.65517382    -0.20000
F1307       F  0.12021323  0.29715021  0.63955700    -0.19600
F1308       F  0.19694005  0.33064691  0.73211854    -0.19700
F1309       F  0.24024726  0.40072750  0.71845743    -0.20000
F1310       F  0.25719923  0.34621914  0.71520840    -0.22700
C1311       C  0.31421750  0.31069437  0.60100273    -0.05500
C1312       C  0.35065324  0.35230356  0.60833015     0.00400
C1313       C  0.34497130  0.36617416  0.62521475    -0.08200
C1314       C  0.30329618  0.33680242  0.63433317    -0.05600
C1315       C  0.26653503  0.29499320  0.62706393     0.00400
C1316       C  0.27176493  0.28202877  0.60982866    -0.08100
C1317       C  0.23281597  0.23954254  0.60024620     0.62300
H1318       H  0.31912313  0.30113639  0.58800003     0.13000
H1319       H  0.29915580  0.34662980  0.64739986     0.13000
C1320       C  0.38283104  0.41101559  0.63391657     0.62500
F1321       F  0.24441988  0.23727716  0.58294897    -0.22600
F1322       F  0.19314300  0.24142009  0.59954805    -0.20000
F1323       F  0.22350852  0.19921050  0.60892911    -0.19600
F1324       F  0.38991659  0.44907367  0.62406436    -0.19700
F1325       F  0.42381487  0.41160649  0.63506107    -0.20000
F1326       F  0.37114192  0.41549896  0.65092496    -0.22700
C1327       C  0.56168042  0.43355637  0.63510894    -0.05500
C1328       C  0.57409014  0.46971838  0.62260881     0.00400
C1329       C  0.61615472  0.51350574  0.62518995    -0.08200
C1330       C  0.64400843  0.51913605  0.64018196    -0.05600
C1331       C  0.63232304  0.48249642  0.65221603     0.00400
C1332       C  0.59022429  0.43898447  0.64985387    -0.08100
C1333       C  0.57505455  0.39862615  0.66283948     0.62300
H1334       H  0.52942511  0.40038990  0.63310005     0.13000
H1335       H  0.67638224  0.55210674  0.64234550     0.13000
C1336       C  0.63336922  0.55344714  0.61186057     0.62500
F1337       F  0.52965192  0.36241591  0.65958083    -0.22600
F1338       F  0.57747359  0.41336756  0.68002604    -0.20000
F1339       F  0.60367558  0.38151281  0.66137944    -0.19600
F1340       F  0.60322856  0.56903184  0.61108147    -0.19700
F1341       F  0.63633319  0.53855287  0.59528599    -0.20000
F1342       F  0.67713601  0.59095547  0.61637304    -0.22700
C1343       C  0.41747756  0.49696138  0.52991936    -0.05500
C1344       C  0.44529957  0.51925629  0.54489957     0.00400
C1345       C  0.45608446  0.56446155  0.54906611    -0.08200
C1346       C  0.43585244  0.58423588  0.53864479    -0.05600
C1347       C  0.40626682  0.56113546  0.52396097     0.00400
C1348       C  0.39830539  0.51697210  0.51913765    -0.08100
C1349       C  0.37097423  0.49060691  0.50261364     0.62300
H1350       H  0.41051914  0.46286552  0.52673160     0.13000
H1351       H  0.44280308  0.61811058  0.54214971     0.13000
C1352       C  0.48807990  0.59157953  0.56452746     0.62500
F1353       F  0.37319889  0.45170220  0.49976172    -0.22600
F1354       F  0.38933688  0.51931321  0.48782612    -0.20000
F1355       F  0.32442881  0.47517374  0.50430819    -0.19600
F1356       F  0.53219340  0.60064797  0.56148270    -0.19700
F1357       F  0.47107306  0.56610151  0.58012658    -0.20000
F1358       F  0.49192135  0.63386064  0.56673856    -0.22700
C1359       C  0.85328008  0.94205317  0.67750964    -0.05500
C1360       C  0.90220068  0.97108068  0.67792406     0.00400
C1361       C  0.92705134  0.96704279  0.69257307    -0.08200
C1362       C  0.90216298  0.93178460  0.70533826    -0.05600
C1363       C  0.85340207  0.90202844  0.70476500     0.00400
C1364       C  0.82817188  0.90836884  0.69086490    -0.08100
C1365       C  0.77525348  0.88026653  0.68990990     0.62300
H1366       H  0.83456683  0.94602556  0.66652845     0.13000
H1367       H  0.92107663  0.92759806  0.71617644     0.13000
C1368       C  0.97920986  0.00069015  0.69551460     0.62500
F1369       F  0.75849474  0.89245139  0.67524891    -0.22600
F1370       F  0.75773905  0.88824586  0.70486937    -0.20000
F1371       F  0.75871738  0.83331552  0.68878360    -0.19600
F1372       F  0.99000170  0.04615359  0.69445627    -0.19700
F1373       F  0.00400064  0.99373403  0.68300216    -0.20000
F1374       F  0.99379151  0.99464925  0.71209136    -0.22700
C1375       C  0.83840326  0.09425355  0.62886348    -0.05500
C1376       C  0.84707591  0.10284796  0.61062464     0.00400
C1377       C  0.88214898  0.09854062  0.60288983    -0.08200
C1378       C  0.90654248  0.08428261  0.61375519    -0.05600
C1379       C  0.89696584  0.07427989  0.63192805     0.00400
C1380       C  0.86323271  0.08065541  0.63979838    -0.08100
C1381       C  0.85329343  0.07360560  0.65957727     0.62300
H1382       H  0.81145947  0.09788822  0.63450151     0.13000
H1383       H  0.93274510  0.07972659  0.60798561     0.13000
C1384       C  0.89245467  0.10695935  0.58316287     0.62500
F1385       F  0.82905240  0.09352000  0.66484534    -0.22600
F1386       F  0.89450933  0.09413401  0.66928730    -0.20000
F1387       F  0.82670304  0.02647183  0.66354901    -0.19600
F1388       F  0.91035905  0.15333387  0.57898761    -0.19700
F1389       F  0.85199486  0.07936465  0.57342161    -0.20000
F1390       F  0.92468592  0.09638461  0.57816717    -0.22700
C1391       C  0.67504988  0.18232286  0.62354815    -0.05500
C1392       C  0.72075940  0.19217433  0.62318784     0.00400
C1393       C  0.75347203  0.22212729  0.63627893    -0.08200
C1394       C  0.73914073  0.24180689  0.64889792    -0.05600
C1395       C  0.69357200  0.23221289  0.64911614     0.00400
C1396       C  0.66088542  0.20223893  0.63612222    -0.08100
C1397       C  0.61204168  0.19316516  0.63481148     0.62300
H1398       H  0.65051942  0.15953001  0.61351344     0.13000
H1399       H  0.76363048  0.26500254  0.65886691     0.13000
C1400       C  0.80289007  0.23257464  0.63746435     0.62500
F1401       F  0.58852970  0.16841557  0.61973724    -0.22600
F1402       F  0.61439663  0.23509787  0.63406872    -0.20000
F1403       F  0.58640978  0.16747367  0.64936113    -0.19600
F1404       F  0.82846487  0.26036219  0.62325184    -0.19700
F1405       F  0.80209577  0.19144450  0.63741815    -0.20000
F1406       F  0.82551610  0.25589444  0.65290690    -0.22700
C1407       C  0.64029687  0.00270255  0.53647313    -0.05500
C1408       C  0.67509641  0.00547503  0.54777086     0.00400
C1409       C  0.68357119  0.96883195  0.54784012    -0.08200
C1410       C  0.65555045  0.92983505  0.53701066    -0.05600
C1411       C  0.61995729  0.92657738  0.52609779     0.00400
C1412       C  0.61311539  0.96419166  0.52532751    -0.08100
C1413       C  0.57798146  0.96413399  0.51254845     0.62300
H1414       H  0.63478011  0.03130631  0.53634164     0.13000
H1415       H  0.66094119  0.90114665  0.53707873     0.13000
C1416       C  0.72104128  0.97014571  0.55964560     0.62500
F1417       F  0.58373581  0.00764429  0.51123818    -0.22600
F1418       F  0.53343652  0.93248707  0.51840054    -0.20000
F1419       F  0.58318911  0.95195330  0.49574809    -0.19600
F1420       F  0.71466610  0.97741365  0.57706389    -0.19700
F1421       F  0.76449615  0.00573422  0.55410662    -0.20000
F1422       F  0.71995623  0.92885822  0.55909276    -0.22700
C1423       C  0.84591770  0.30640564  0.52200701    -0.05500
C1424       C  0.81072517  0.29738942  0.50960775     0.00400
C1425       C  0.76613116  0.25624216  0.51118041    -0.08200
C1426       C  0.75791868  0.22588234  0.52557933    -0.05600
C1427       C  0.79317495  0.23462529  0.53797031     0.00400
C1428       C  0.83814256  0.27558700  0.53619458    -0.08100
C1429       C  0.87759535  0.28737528  0.54926817     0.62300
H1430       H  0.87982094  0.33807598  0.52045755     0.13000
H1431       H  0.72385243  0.19437006  0.52706623     0.13000
C1432       C  0.72809320  0.24340152  0.49732658     0.62500
F1433       F  0.91641526  0.33136429  0.54614681    -0.22600
F1434       F  0.89092287  0.25562497  0.54777518    -0.20000
F1435       F  0.86323410  0.28623424  0.56642567    -0.19600
F1436       F  0.74516912  0.24587479  0.48055361    -0.19700
F1437       F  0.71276410  0.27363885  0.49817043    -0.20000
F1438       F  0.69014573  0.19857062  0.49990440    -0.22700
C1439       C  0.99349253  0.40220655  0.45804339    -0.05500
C1440       C  0.99497379  0.41616645  0.44028768     0.00400
C1441       C  0.95746201  0.41899130  0.43323158    -0.08200
C1442       C  0.91959002  0.40722026  0.44430482    -0.05600
C1443       C  0.91790523  0.39277989  0.46207684     0.00400
C1444       C  0.95610722  0.39084501  0.46917349    -0.08100
C1445       C  0.95855394  0.37744012  0.48841561     0.62300
H1446       H  0.02239509  0.40026661  0.46325087     0.13000
H1447       H  0.89045940  0.40862275  0.43901829     0.13000
C1448       C  0.95681209  0.43356840  0.41407383     0.62500
F1449       F  0.00260444  0.38758045  0.49314124    -0.22600
F1450       F  0.92789238  0.33002365  0.49089578    -0.20000
F1451       F  0.94782385  0.40188689  0.49969546    -0.19600
F1452       F  0.96392107  0.40644872  0.40275900    -0.19700
F1453       F  0.99147700  0.47995907  0.41172583    -0.20000
F1454       F  0.91473315  0.42848152  0.40939119    -0.22700
C1455       C  0.23944359  0.59100733  0.34450492    -0.05500
C1456       C  0.22876693  0.62547900  0.34282343     0.00400
C1457       C  0.19640742  0.62494144  0.35456438    -0.08200
C1458       C  0.17526814  0.58897960  0.36743323    -0.05600
C1459       C  0.18633401  0.55467143  0.36925016     0.00400
C1460       C  0.21883990  0.55543755  0.35745435    -0.08100
C1461       C  0.23101669  0.51836495  0.35799747     0.62300
H1462       H  0.26443455  0.59224557  0.33546172     0.13000
H1463       H  0.15034471  0.58790860  0.37646369     0.13000
C1464       C  0.18564401  0.66303462  0.35416085     0.62500
F1465       F  0.25873729  0.52291798  0.34391245    -0.22600
F1466       F  0.19067104  0.47458616  0.35709229    -0.20000
F1467       F  0.25523575  0.52191413  0.37349492    -0.19600
F1468       F  0.15980157  0.65899008  0.33909681    -0.19700
F1469       F  0.22660426  0.70643898  0.35420634    -0.20000
F1470       F  0.16033055  0.66034895  0.36880028    -0.22700
C1471       C  0.21621182  0.53332625  0.46716064    -0.05500
C1472       C  0.22034552  0.50445236  0.45520473     0.00400
C1473       C  0.25773104  0.49730710  0.45762132    -0.08200
C1474       C  0.29199923  0.52335611  0.47064262    -0.05600
C1475       C  0.28918569  0.55429523  0.48182722     0.00400
C1476       C  0.24930825  0.55738271  0.48074700    -0.08100
C1477       C  0.24099411  0.58509688  0.49402870     0.62300
H1478       H  0.18674220  0.53731889  0.46575101     0.13000
H1479       H  0.32201608  0.52037481  0.47196368     0.13000
C1480       C  0.26247703  0.46326527  0.44650097     0.62500
F1481       F  0.19501632  0.57273289  0.49373964    -0.22600
F1482       F  0.26878394  0.63209032  0.49000914    -0.20000
F1483       F  0.25118851  0.57687047  0.51108964    -0.19600
F1484       F  0.26749437  0.47667881  0.42880746    -0.19700
F1485       F  0.22349810  0.41883919  0.44850220    -0.20000
F1486       F  0.30080487  0.46131823  0.45160496    -0.22700
C1487       C  0.93068923  0.14965383  0.31247744    -0.05500
C1488       C  0.96812689  0.14395082  0.30994064     0.00400
C1489       C  0.97297106  0.12848147  0.29314678    -0.08200
C1490       C  0.93854185  0.11701514  0.27995324    -0.05600
C1491       C  0.90141124  0.12304627  0.28253863     0.00400
C1492       C  0.89764125  0.14027892  0.29894459    -0.08100
C1493       C  0.85873576  0.14847041  0.30221759     0.62300
H1494       H  0.92764810  0.16186797  0.32522557     0.13000
H1495       H  0.94087472  0.10408454  0.26724123     0.13000
C1496       C  0.01533915  0.12657614  0.28858564     0.62500
F1497       F  0.81603272  0.10820077  0.29891503    -0.22600
F1498       F  0.86392897  0.18387059  0.29112475    -0.20000
F1499       F  0.85913687  0.16137538  0.31956158    -0.19600
F1500       F  0.01452454  0.09045369  0.29775856    -0.19700
F1501       F  0.05564016  0.16836298  0.29287044    -0.20000
F1502       F  0.01674310  0.11943435  0.27063607    -0.22700
C1503       C  0.02308695  0.24657459  0.36800157    -0.05500
C1504       C  0.05941831  0.24421099  0.36065690     0.00400
C1505       C  0.10626489  0.28031002  0.36429140    -0.08200
C1506       C  0.11483872  0.31757117  0.37507319    -0.05600
C1507       C  0.07853303  0.32045542  0.38203742     0.00400
C1508       C  0.03175525  0.28396842  0.37874781    -0.08100
C1509       C  0.99111347  0.28400123  0.38672466     0.62300
H1510       H  0.98754957  0.21875128  0.36516522     0.13000
H1511       H  0.15033122  0.34559098  0.37784845     0.13000
C1512       C  0.14723048  0.28075192  0.35639168     0.62500
F1513       F  0.94960646  0.24156905  0.38460923    -0.22600
F1514       F  0.98631501  0.31800282  0.37849392    -0.20000
F1515       F  0.99865064  0.29268857  0.40474263    -0.19600
F1516       F  0.14101980  0.27450807  0.33822852    -0.19700
F1517       F  0.15099455  0.24553197  0.36402586    -0.20000
F1518       F  0.18889120  0.32255657  0.35935247    -0.22700
C1519       C  0.92260230  0.66141853  0.50374826    -0.05500
C1520       C  0.88343211  0.61698189  0.50739303     0.00400
C1521       C  0.87691101  0.59796819  0.52482860    -0.08200
C1522       C  0.91151369  0.62316146  0.53774179    -0.05600
C1523       C  0.95133136  0.66691285  0.53399971     0.00400
C1524       C  0.95690707  0.68700713  0.51681216    -0.08100
C1525       C  0.99942067  0.73428159  0.51207170     0.62300
H1526       H  0.92634754  0.67570840  0.49044421     0.13000
H1527       H  0.90767760  0.60880228  0.55104358     0.13000
C1528       C  0.83278685  0.55244637  0.53011121     0.62500
F1529       F  0.99986044  0.74500397  0.49420028    -0.22600
F1530       F  0.03954928  0.73454851  0.51591113    -0.20000
F1531       F  0.99966369  0.76862801  0.52167749    -0.19600
F1532       F  0.83029542  0.51543407  0.52169591    -0.19700
F1533       F  0.79420400  0.55436176  0.52549944    -0.20000
F1534       F  0.83133287  0.54392032  0.54821919    -0.22700
C1535       C  0.75531321  0.63927897  0.43386082    -0.05500
C1536       C  0.75362836  0.67386530  0.44304153     0.00400
C1537       C  0.76375453  0.67922226  0.46151946    -0.08200
C1538       C  0.77741180  0.65105328  0.46995013    -0.05600
C1539       C  0.78063347  0.61745329  0.46070892     0.00400
C1540       C  0.76873706  0.61079518  0.44234062    -0.08100
C1541       C  0.77184197  0.57533792  0.43149061     0.62300
H1542       H  0.74700747  0.63548245  0.41978847     0.13000
H1543       H  0.78589032  0.65521034  0.48401029     0.13000
C1544       C  0.75867603  0.71325214  0.47251965     0.62500
F1545       F  0.76332647  0.57829086  0.41360452    -0.22600
F1546       F  0.73913816  0.53069529  0.43725431    -0.20000
F1547       F  0.81598400  0.58288986  0.43321785    -0.19600
F1548       F  0.71497884  0.70612059  0.46961391    -0.19700
F1549       F  0.79249642  0.75860997  0.46796660    -0.20000
F1550       F  0.76345274  0.70757622  0.49052981    -0.22700
C1551       C  0.60702920  0.68979504  0.36192267    -0.05500
C1552       C  0.61893805  0.72906499  0.37192619     0.00400
C1553       C  0.59777008  0.75454090  0.36784449    -0.08200
C1554       C  0.56585122  0.73974677  0.35361857    -0.05600
C1555       C  0.55384774  0.70049711  0.34333158     0.00400
C1556       C  0.57546574  0.67511486  0.34751650    -0.08100
C1557       C  0.56733640  0.63376061  0.33685103     0.62300
H1558       H  0.62388749  0.67108055  0.36529314     0.13000
H1559       H  0.54992971  0.75940472  0.35049691     0.13000
C1560       C  0.60721654  0.79625214  0.37862026     0.62500
F1561       F  0.59334797  0.61605204  0.34332134    -0.22600
F1562       F  0.58030470  0.64765266  0.31943863    -0.20000
F1563       F  0.52103608  0.59788489  0.33752987    -0.19600
F1564       F  0.65266523  0.83290209  0.37628822    -0.19700
F1565       F  0.59962415  0.78409153  0.39643282    -0.20000
F1566       F  0.57838582  0.81186652  0.37351633    -0.22700
C1567       C  0.61221658  0.78690497  0.45177706    -0.05500
C1568       C  0.66020286  0.80552017  0.45367149     0.00400
C1569       C  0.68409159  0.83244427  0.46881393    -0.08200
C1570       C  0.65902480  0.84048425  0.48135111    -0.05600
C1571       C  0.61075374  0.82140851  0.47964392     0.00400
C1572       C  0.58674310  0.79389759  0.46445637    -0.08100
C1573       C  0.53464621  0.77166853  0.46130557     0.62300
H1574       H  0.59448396  0.76603428  0.44019610     0.13000
H1575       H  0.67705747  0.86106365  0.49294332     0.13000
C1576       C  0.73511895  0.85031467  0.47232880     0.62500
F1577       F  0.52068635  0.75240082  0.44457706    -0.22600
F1578       F  0.52296789  0.80472587  0.46265373    -0.20000
F1579       F  0.51012856  0.73623192  0.47361087    -0.19600
F1580       F  0.76239065  0.88259662  0.45942349    -0.19700
F1581       F  0.74153918  0.81338774  0.47224764    -0.20000
F1582       F  0.75026639  0.87174871  0.48864221    -0.22700
C1583       C  0.01286474  0.84989967  0.31134686    -0.05500
C1584       C  0.02541265  0.89632585  0.30869364     0.00400
C1585       C  0.04681627  0.91933772  0.29244034    -0.08200
C1586       C  0.05853969  0.89639886  0.28029913    -0.05600
C1587       C  0.04723417  0.85057657  0.28321262     0.00400
C1588       C  0.02275939  0.82626802  0.29877178    -0.08100
C1589       C  0.00812848  0.77609032  0.30236959     0.62300
H1590       H  0.99577005  0.83232323  0.32355903     0.13000
H1591       H  0.07653288  0.91420570  0.26820391     0.13000
C1592       C  0.05578154  0.96705481  0.28737058     0.62500
F1593       F  0.98835810  0.76054221  0.31894799    -0.22600
F1594       F  0.04645215  0.77204833  0.30166127    -0.20000
F1595       F  0.97545681  0.74754695  0.28979461    -0.19600
F1596       F  0.09323140  0.00129085  0.29700329    -0.19700
F1597       F  0.01660237  0.96841163  0.29060705    -0.20000
F1598       F  0.06588401  0.97714322  0.26951455    -0.22700
C1599       C  0.91247407  0.91483209  0.36744457    -0.05500
C1600       C  0.92730589  0.88867037  0.35874082     0.00400
C1601       C  0.90315706  0.83978768  0.36210598    -0.08200
C1602       C  0.86490752  0.81944465  0.37366083    -0.05600
C1603       C  0.84972095  0.84557420  0.38199827     0.00400
C1604       C  0.87414297  0.89435680  0.37892311    -0.08100
C1605       C  0.85877820  0.92465855  0.38692714     0.62300
H1606       H  0.93073107  0.95197095  0.36492344     0.13000
H1607       H  0.84598472  0.78224707  0.37617743     0.13000
C1608       C  0.91700977  0.80855019  0.35382852     0.62500
F1609       F  0.88568351  0.97058932  0.38121358    -0.22600
F1610       F  0.86255266  0.92429966  0.40524476    -0.20000
F1611       F  0.81307394  0.90797759  0.38198729    -0.19600
F1612       F  0.96379805  0.82620245  0.35696010    -0.19700
F1613       F  0.90796697  0.80550060  0.33575053    -0.20000
F1614       F  0.89235732  0.76372831  0.36084441    -0.22700
C1615       C  0.52353724  0.35015625  0.50711529    -0.05500
C1616       C  0.56621795  0.35379729  0.51030003     0.00400
C1617       C  0.58688112  0.36588571  0.52749409    -0.08200
C1618       C  0.56606318  0.37787688  0.54045573    -0.05600
C1619       C  0.52465118  0.37653679  0.53703547     0.00400
C1620       C  0.50220797  0.36136784  0.52023138    -0.08100
C1621       C  0.45710151  0.35890243  0.51588970     0.62300
H1622       H  0.50760351  0.33955580  0.49405723     0.13000
H1623       H  0.58242951  0.38898315  0.55343003     0.13000
C1624       C  0.63029406  0.36550671  0.53237313     0.62500
F1625       F  0.44386647  0.34791869  0.49827920    -0.22600
F1626       F  0.46250415  0.40151412  0.51903526    -0.20000
F1627       F  0.42170332  0.32494809  0.52632942    -0.19600
F1628       F  0.66893900  0.40402575  0.52495006    -0.19700
F1629       F  0.62622064  0.32533660  0.52626884    -0.20000
F1630       F  0.63723528  0.36669500  0.55058972    -0.22700
C1631       C  0.57297867  0.25024214  0.44565910    -0.05500
C1632       C  0.55549439  0.25030373  0.46244391     0.00400
C1633       C  0.51398771  0.20912302  0.46835147    -0.08200
C1634       C  0.49242775  0.16996556  0.45726432    -0.05600
C1635       C  0.50985135  0.17020537  0.44049665     0.00400
C1636       C  0.55110782  0.21109081  0.43456537    -0.08100
C1637       C  0.57211153  0.21399827  0.41661435     0.62300
H1638       H  0.60426934  0.28164005  0.44113261     0.13000
H1639       H  0.46093830  0.13845135  0.46161066     0.13000
C1640       C  0.49142511  0.20570819  0.48602083     0.62500
F1641       F  0.61010907  0.25819246  0.41302097    -0.22600
F1642       F  0.53931648  0.20300851  0.40326168    -0.20000
F1643       F  0.58707416  0.18334471  0.41637936    -0.19600
F1644       F  0.47462907  0.23487400  0.48563010    -0.19700
F1645       F  0.52338449  0.21788659  0.49977891    -0.20000
F1646       F  0.45419154  0.16099378  0.48956386    -0.22700
C1647       C  0.51080017  0.99511938  0.36685974    -0.05500
C1648       C  0.46575296  0.98750927  0.36668222     0.00400
C1649       C  0.43412568  0.96084854  0.35269155    -0.08200
C1650       C  0.44923853  0.94360093  0.33945146    -0.05600
C1651       C  0.49389990  0.95112148  0.33977940     0.00400
C1652       C  0.52511982  0.97644030  0.35380450    -0.08100
C1653       C  0.57223258  0.98147984  0.35544080     0.62300
H1654       H  0.53451191  0.01489081  0.37761612     0.13000
H1655       H  0.42583570  0.92313947  0.32871805     0.13000
C1656       C  0.38468539  0.95043495  0.35138656     0.62500
F1657       F  0.59458985  0.00179130  0.37130054    -0.22600
F1658       F  0.60047851  0.00903252  0.34168985    -0.20000
F1659       F  0.56658467  0.93804805  0.35477434    -0.19600
F1660       F  0.38576522  0.99173049  0.35095487    -0.19700
F1661       F  0.35908295  0.92334386  0.36573811    -0.20000
F1662       F  0.36161468  0.92606077  0.33618823    -0.22700
C1663       C  0.32380067  0.87017633  0.46921460    -0.05500
C1664       C  0.35898020  0.87475117  0.48072959     0.00400
C1665       C  0.40518646  0.91331403  0.47858249    -0.08200
C1666       C  0.41490027  0.94438071  0.46425880    -0.05600
C1667       C  0.37997282  0.93920043  0.45232451     0.00400
C1668       C  0.33322869  0.90162162  0.45501476    -0.08100
C1669       C  0.29322635  0.89377925  0.44297551     0.62300
H1670       H  0.28863411  0.84093534  0.47125699     0.13000
H1671       H  0.45035611  0.97326242  0.46234110     0.13000
C1672       C  0.44410797  0.92263705  0.49154250     0.62500
F1673       F  0.25182575  0.85293447  0.44719886    -0.22600
F1674       F  0.30295436  0.89071129  0.42550393    -0.20000
F1675       F  0.28649810  0.93022423  0.44468935    -0.19600
F1676       F  0.45861040  0.89245304  0.48834618    -0.19700
F1677       F  0.42876450  0.91669777  0.50884411    -0.20000
F1678       F  0.48222050  0.96774125  0.48986835    -0.22700
C1679       C  0.31193956  0.30108879  0.30199833    -0.05500
C1680       C  0.33935309  0.29535663  0.28985216     0.00400
C1681       C  0.34358336  0.25607799  0.29170494    -0.08200
C1682       C  0.31978737  0.22388583  0.30554251    -0.05600
C1683       C  0.29121788  0.22879032  0.31724031     0.00400
C1684       C  0.28759841  0.26840606  0.31569743    -0.08100
C1685       C  0.25858106  0.27650913  0.32842386     0.62300
H1686       H  0.30903723  0.33124352  0.30048730     0.13000
H1687       H  0.32195111  0.19327761  0.30696850     0.13000
C1688       C  0.37073102  0.24633637  0.27866152     0.62500
F1689       F  0.26746530  0.32124172  0.32677171    -0.22600
F1690       F  0.26861221  0.27034826  0.34578378    -0.20000
F1691       F  0.21176029  0.24555238  0.32492630    -0.19600
F1692       F  0.41742225  0.28111629  0.27945784    -0.19700
F1693       F  0.35357360  0.24412549  0.26163775    -0.20000
F1694       F  0.36717304  0.20443363  0.28234166    -0.22700
C1695       C  0.29426584  0.05842262  0.37835562    -0.05500
C1696       C  0.34298055  0.08826193  0.37953641     0.00400
C1697       C  0.36452869  0.13271890  0.37100557    -0.08200
C1698       C  0.33643003  0.14532028  0.36179258    -0.05600
C1699       C  0.28770747  0.11566535  0.36047767     0.00400
C1700       C  0.26603422  0.07078422  0.36885494    -0.08100
C1701       C  0.21383349  0.03511729  0.36766560     0.62300
H1702       H  0.27829012  0.02469737  0.38488997     0.13000
H1703       H  0.35291927  0.17935293  0.35552183     0.13000
C1704       C  0.41692180  0.16767911  0.37165431     0.62500
F1705       F  0.20183210  0.99264882  0.37524561    -0.22600
F1706       F  0.19963039  0.02719268  0.35005408    -0.20000
F1707       F  0.18981876  0.05093218  0.37655930    -0.19600
F1708       F  0.43953262  0.14994811  0.36299902    -0.19700
F1709       F  0.43213142  0.17712247  0.38913517    -0.20000
F1710       F  0.42949456  0.20959999  0.36342229    -0.22700
loop_ 
_geom_bond_atom_site_label_1 
_geom_bond_atom_site_label_2 
_geom_bond_distance 
_geom_bond_site_symmetry_2 
_ccdc_geom_bond_type 
C1            N2   1.363       .  A
C1            N6   1.356       .  A
C1         C1699   1.503       .  S
N2            C3   1.359       .  A
C3            N4   1.354       .  A
C3         C1683   1.482       .  S
N4            C5   1.357       .  A
C5            N6   1.357       .  A
C5           C89   1.466       .  S
O7           C10   1.269       .  A
O7          Cd12   2.508       .  S
C8         C1667   1.494       .  S
C8           O17   1.266       .  A
C8           O13   1.266       .  A
O9           C15   1.268       .  A
O9          Cd12   2.506       .  S
C10        C1696   1.496       .  S
C10          O18   1.262       .  A
C11        C1635   1.490       .  S
C11          O16   1.267       .  A
C11          O14   1.265       .  A
Cd12         O19   2.424   1_545  S
Cd12         O18   2.420       .  S
Cd12         O17   2.460   1_545  S
Cd12         O13   2.466   1_545  S
Cd12         O16   2.477       .  S
Cd12         O14   2.437       .  S
C15        C1648   1.493   1_545  S
C15          O19   1.261   1_545  A
C20          N21   1.359       .  A
C20          N25   1.357       .  A
C20        C1616   1.484       .  S
N21          C22   1.360       .  A
C22          N23   1.363       .  A
C22        C1632   1.499       .  S
N23          C24   1.358       .  A
C24          N25   1.357       .  A
C24          C28   1.477       .  S
C26          C83   1.476       .  S
C26          C27   1.406       .  A
C26          C31   1.403       .  A
C27          C28   1.402       .  A
C27          H32   1.083       .  S
C28          C29   1.403       .  A
C29          C30   1.405       .  A
C29          H33   1.084       .  S
C30          C56   1.473       .  S
C30          C31   1.406       .  A
C31          H34   1.084       .  S
C35          N36   1.365   1_455  A
C35          N40   1.358       .  A
C35        C1584   1.495       .  S
N36          C37   1.363       .  A
C37          N38   1.358       .  A
C37        C1600   1.501       .  S
N38          C39   1.353   1_655  A
C39          N40   1.355       .  A
C39          C87   1.470   1_565  S
O41          C44   1.267       .  A
O41         Cd46   2.482       .  S
C42        C1552   1.479       .  S
C42          O51   1.265       .  A
C42          O47   1.269       .  A
O43          C49   1.268       .  A
O43         Cd46   2.482       .  S
C44        C1536   1.481       .  S
C44          O52   1.262       .  A
C45        C1603   1.492       .  S
C45          O50   1.268       .  A
C45          O48   1.264       .  A
Cd46         O53   2.445       .  S
Cd46         O52   2.419       .  S
Cd46         O51   2.434       .  S
Cd46         O47   2.433       .  S
Cd46         O50   2.480       .  S
Cd46         O48   2.445       .  S
C49        C1568   1.489       .  S
C49          O53   1.264       .  A
C54          N55   1.358       .  A
C54          N59   1.360       .  A
C54        C1539   1.484       .  S
N55          C56   1.357       .  A
C56          N57   1.356       .  A
N57          C58   1.356       .  A
C58          N59   1.356       .  A
C58        C1520   1.479       .  S
C60          N61   1.352       .  A
C60          N65   1.363       .  A
C60        C1488   1.490   1_455  S
N61          C62   1.354       .  A
C62          N63   1.360       .  A
C62          C85   1.469       .  S
N63          C64   1.361       .  A
C64          N65   1.365       .  A
C64        C1504   1.490       .  S
O66          C69   1.266       .  A
O66         Cd71   2.489       .  S
C67        C1472   1.494       .  S
C67          O76   1.266       .  A
C67          O72   1.265       .  A
O68          C74   1.266       .  A
O68         Cd71   2.497       .  S
C69        C1507   1.487       .  S
C69          O77   1.263       .  A
C70        C1440   1.490   1_455  S
C70          O75   1.265       .  A
C70          O73   1.266       .  A
Cd71         O78   2.449       .  S
Cd71         O77   2.474       .  S
Cd71         O76   2.467       .  S
Cd71         O72   2.478       .  S
Cd71         O75   2.474       .  S
Cd71         O73   2.453       .  S
C74        C1459   1.488       .  S
C74          O78   1.262       .  A
C79          N80   1.352       .  A
C79          N84   1.352       .  A
C79        C1424   1.474       .  S
N80          C81   1.355       .  A
C81          N82   1.367       .  A
C81        C1443   1.495       .  S
N82          C83   1.366       .  A
C83          N84   1.357       .  A
C85          C86   1.403       .  A
C85          C90   1.400       .  A
C86          C87   1.402       .  A
C86          H91   1.084       .  S
C87          C88   1.400       .  A
C88          C89   1.404       .  A
C88          H92   1.084       .  S
C89          C90   1.403       .  A
C90          H93   1.084       .  S
C94          N95   1.362       .  A
C94          N99   1.357       .  A
C94        C1571   1.499       .  S
N95          C96   1.361       .  A
C96          N97   1.362       .  A
C96        C1411   1.484       .  S
N97          C98   1.362       .  A
C98          N99   1.358       .  A
C98         C182   1.481       .  S
O100        C103   1.266       .  A
O100       Cd105   2.445       .  S
C101       C1376   1.475       .  S
C101        O110   1.266       .  A
C101        O106   1.267       .  A
O102        C108   1.271       .  A
O102       Cd105   2.488       .  S
C103       C1427   1.480       .  S
C103        O111   1.266       .  A
C104       C1408   1.488       .  S
C104        O109   1.270       .  A
C104        O107   1.264       .  A
Cd105       O112   2.463       .  S
Cd105       O111   2.444       .  S
Cd105       O110   2.431       .  S
Cd105       O106   2.451       .  S
Cd105       O109   2.501       .  S
Cd105       O107   2.473       .  S
C108       C1392   1.491       .  S
C108        O112   1.263       .  A
C113        N114   1.359       .  A
C113        N118   1.359       .  A
C113       C1379   1.481       .  S
N114        C115   1.359       .  A
C115        N116   1.355       .  A
C115       C1360   1.494   1_545  S
N116        C117   1.355       .  A
C117        N118   1.355       .  A
C117        C173   1.469   1_655  S
C119        N120   1.356       .  A
C119        N124   1.362       .  A
C119       C1347   1.502       .  S
N120        C121   1.357       .  A
C121        N122   1.359       .  A
C121       C1475   1.487       .  S
N122        C123   1.360       .  A
C123        N124   1.360       .  A
C123        C180   1.479       .  S
O125        C128   1.268       .  A
O125       Cd130   2.484       .  S
C126       C1344   1.487       .  S
C126        O135   1.263       .  A
C126        O131   1.268       .  A
O127        C133   1.265       .  A
O127       Cd130   2.480       .  S
C128       C1328   1.488       .  S
C128        O136   1.266       .  A
C129       C1312   1.483       .  S
C129        O134   1.268       .  A
C129        O132   1.263       .  A
Cd130       O137   2.464       .  S
Cd130       O136   2.432       .  S
Cd130       O135   2.414       .  S
Cd130       O131   2.502       .  S
Cd130       O134   2.466       .  S
Cd130       O132   2.443       .  S
C133       C1619   1.483       .  S
C133        O137   1.265       .  A
C138        N139   1.354       .  A
C138        N143   1.357       .  A
C138       C1299   1.473       .  S
N139        C140   1.360       .  A
C140        N141   1.359       .  A
C140       C1315   1.493       .  S
N141        C142   1.359       .  A
C142        N143   1.358       .  A
C142        C171   1.474       .  S
C144        N145   1.355       .  A
C144        N149   1.359       .  A
C144       C1664   1.485       .  S
N145        C146   1.357       .  A
C146        N147   1.362       .  A
C146        C178   1.478       .  S
N147        C148   1.363       .  A
C148        N149   1.360       .  A
C148       C1283   1.480       .  S
O150        C153   1.265   1_655  A
O150       Cd155   2.454   1_655  S
C151       C1280   1.475       .  S
C151        O160   1.264       .  A
C151        O156   1.265       .  A
O152        C158   1.266   1_455  A
O152       Cd155   2.479       .  S
C153       C1264   1.490   1_455  S
C153        O161   1.264       .  A
C154       C1248   1.482       .  S
C154        O159   1.264       .  A
C154        O157   1.261       .  A
Cd155       O162   2.438   1_455  S
Cd155       O161   2.484       .  S
Cd155       O160   2.439       .  S
Cd155       O156   2.473       .  S
Cd155       O159   2.465       .  S
Cd155       O157   2.444       .  S
C158       C1523   1.478       .  S
C158        O162   1.266       .  A
C163        N164   1.359   1_545  A
C163        N168   1.355       .  A
C163       C1235   1.481       .  S
N164        C165   1.363       .  A
C165        N166   1.360   1_565  A
C165       C1251   1.481       .  S
N166        C167   1.359       .  A
C167        N168   1.355       .  A
C167        C169   1.468       .  S
C169        C170   1.403       .  A
C169        C174   1.401       .  A
C170        C171   1.403       .  A
C170        H175   1.085       .  S
C171        C172   1.404       .  A
C172        C173   1.403       .  A
C172        H176   1.084       .  S
C173        C174   1.403       .  A
C174        H177   1.084       .  S
C178        C179   1.405       .  A
C178        C183   1.408       .  A
C179        C180   1.406       .  A
C179        H184   1.083       .  S
C180        C181   1.405       .  A
C181        C182   1.405       .  A
C181        H185   1.084       .  S
C182        C183   1.404       .  A
C183        H186   1.083       .  S
C187        N188   1.363       .  A
C187        N192   1.363       .  A
C187       C1216   1.499       .  S
N188        C189   1.359       .  A
C189        N190   1.353       .  A
C189        C264   1.471       .  S
N190        C191   1.352       .  A
C191        N192   1.365       .  A
C191       C1267   1.498       .  S
O193        C196   1.269       .  A
O193       Cd198   2.479       .  S
C194       C1219   1.491       .  S
C194        O203   1.266       .  A
C194        O199   1.267       .  A
O195        C201   1.269       .  A
O195       Cd198   2.447       .  S
C196       C1200   1.496       .  S
C196        O204   1.261       .  A
C197       C1296   1.483       .  S
C197        O202   1.267       .  A
C197        O200   1.264       .  A
Cd198       O205   2.458       .  S
Cd198       O204   2.450       .  S
Cd198       O203   2.463       .  S
Cd198       O199   2.481       .  S
Cd198       O202   2.502       .  S
Cd198       O200   2.437       .  S
C201       C1184   1.490       .  S
C201        O205   1.264       .  A
C206        N207   1.356       .  A
C206        N211   1.354       .  A
C206       C1168   1.484       .  S
N207        C208   1.360       .  A
C208        N209   1.359       .  A
C208       C1187   1.490       .  S
N209        C210   1.358       .  A
C210        N211   1.353       .  A
C210        C275   1.469       .  S
C212        N213   1.363       .  A
C212        N217   1.358       .  A
C212       C1152   1.480       .  S
N213        C214   1.360       .  A
C214        N215   1.355       .  A
C214        C273   1.476       .  S
N215        C216   1.352       .  A
C216        N217   1.356       .  A
C216       C1136   1.490       .  S
O218        C221   1.266       .  A
O218       Cd223   2.464       .  S
C219       C1232   1.493       .  S
C219        O228   1.262       .  A
C219        O224   1.269       .  A
O220        C226   1.268       .  A
O220       Cd223   2.479       .  S
C221       C1155   1.478       .  S
C221        O229   1.264       .  A
C222       C1107   1.483       .  S
C222        O227   1.267       .  A
C222        O225   1.265       .  A
Cd223       O230   2.433       .  S
Cd223       O229   2.448       .  S
Cd223       O228   2.434       .  S
Cd223       O224   2.484       .  S
Cd223       O227   2.479       .  S
Cd223       O225   2.434       .  S
C226       C1120   1.481       .  S
C226        O230   1.263       .  A
C231        N232   1.359       .  A
C231        N236   1.360       .  A
C231       C1395   1.486       .  S
N232        C233   1.359       .  A
C233        N234   1.356       .  A
C233       C1104   1.482       .  S
N234        C235   1.354       .  A
C235        N236   1.359       .  A
C235        C266   1.470       .  S
C237        N238   1.359       .  A
C237        N242   1.356       .  A
C237       C1072   1.494       .  S
N238        C239   1.361       .  A
C239        N240   1.358       .  A
C239        C271   1.472       .  S
N240        C241   1.356       .  A
C241        N242   1.355       .  A
C241       C1088   1.474       .  S
O243        C246   1.268       .  A
O243       Cd248   2.457       .  S
C244       C1363   1.497       .  S
C244        O253   1.265       .  A
C244        O249   1.264       .  A
O245        C251   1.268       .  A
O245       Cd248   2.488       .  S
C246       C1091   1.482       .  S
C246        O254   1.264       .  A
C247       C1040   1.489       .  S
C247        O252   1.267       .  A
C247        O250   1.263       .  A
Cd248       O255   2.468       .  S
Cd248       O254   2.441       .  S
Cd248       O253   2.458       .  S
Cd248       O249   2.509       .  S
Cd248       O252   2.495       .  S
Cd248       O250   2.466       .  S
C251       C1056   1.490       .  S
C251        O255   1.262       .  A
C256        N257   1.355       .  A
C256        N261   1.356       .  A
C256       C1331   1.477       .  S
N257        C258   1.356       .  A
C258        N259   1.360       .  A
C258       C1043   1.479       .  S
N259        C260   1.362       .  A
C260        N261   1.360       .  A
C260        C262   1.475       .  S
C262        C263   1.403       .  A
C262        C267   1.402       .  A
C263        C264   1.407       .  A
C263        H268   1.084       .  S
C264        C265   1.402       .  A
C265        C266   1.401       .  A
C265        H269   1.083       .  S
C266        C267   1.403       .  A
C267        H270   1.084       .  S
C271        C272   1.401       .  A
C271        C276   1.401       .  A
C272        C273   1.405       .  A
C272        H277   1.084       .  S
C273        C274   1.404       .  A
C274        C275   1.405       .  A
C274        H278   1.084       .  S
C275        C276   1.402       .  A
C276        H279   1.084       .  S
C280        N281   1.360       .  A
C280        N285   1.361       .  A
C280       C1027   1.487       .  S
N281        C282   1.359       .  A
C282        N283   1.354       .  A
C282        C366   1.469       .  S
N283        C284   1.355       .  A
C284        N285   1.358       .  A
C284       C1011   1.477   1_556  S
O286        C289   1.267       .  A
O286       Cd291   2.460       .  S
C287       C1024   1.484       .  S
C287        O296   1.263       .  A
C287        O292   1.268       .  A
O288        C294   1.269       .  A
O288       Cd291   2.483       .  S
C289       C1075   1.482       .  S
C289        O297   1.266       .  A
C290        C976   1.484       .  S
C290        O295   1.269       .  A
C290        O293   1.263       .  A
Cd291       O298   2.428       .  S
Cd291       O297   2.451       .  S
Cd291       O296   2.445       .  S
Cd291       O292   2.484       .  S
Cd291       O295   2.477       .  S
Cd291       O293   2.442       .  S
C294        C995   1.495       .  S
C294        O298   1.261       .  A
C299        N300   1.358       .  A
C299        N304   1.362       .  A
C299       C1123   1.492       .  S
N300        C301   1.354       .  A
C301        N302   1.355       .  A
C301        C334   1.467       .  S
N302        C303   1.356       .  A
C303        N304   1.363       .  A
C303        C979   1.486       .  S
C305        N306   1.358       .  A
C305        N310   1.356       .  A
C305        C944   1.497   1_556  S
N306        C307   1.356       .  A
C307        N308   1.357       .  A
C307        C960   1.467       .  S
N308        C309   1.357       .  A
C309        N310   1.356       .  A
C309        C364   1.470       .  S
O311        C314   1.266       .  A
O311       Cd316   2.477       .  S
C312       C1139   1.490       .  S
C312        O321   1.264       .  A
C312        O317   1.264       .  A
O313        C319   1.268       .  A
O313       Cd316   2.488       .  S
C314        C963   1.483       .  S
C314        O322   1.263       .  A
C315        C928   1.495       .  S
C315        O320   1.266   1_565  A
C315        O318   1.265   1_565  A
Cd316       O323   2.438       .  S
Cd316       O322   2.457       .  S
Cd316       O321   2.428       .  S
Cd316       O317   2.502       .  S
Cd316       O320   2.494       .  S
Cd316       O318   2.474       .  S
C319        C915   1.489       .  S
C319        O323   1.263       .  A
C324        N325   1.355   1_455  A
C324        N329   1.356       .  A
C324       C1203   1.488       .  S
N325        C326   1.361       .  A
C326        N327   1.359       .  A
C326        C912   1.487       .  S
N327        C328   1.358   1_655  A
C328        N329   1.357       .  A
C328        C330   1.469       .  S
C330        C331   1.403       .  A
C330        C335   1.400       .  A
C331        C332   1.407       .  A
C331        H336   1.084       .  S
C332        C360   1.474   1_545  S
C332        C333   1.404       .  A
C333        C334   1.403       .  A
C333        H337   1.083       .  S
C334        C335   1.398       .  A
C335        H338   1.085       .  S
C339        N340   1.356       .  A
C339        N344   1.357       .  A
C339        C880   1.473   1_556  S
N340        C341   1.358       .  A
C341        N342   1.358       .  A
C341        C896   1.480       .  S
N342        C343   1.356       .  A
C343        N344   1.358       .  A
C343        C368   1.469       .  S
O345        C348   1.267       .  A
O345       Cd350   2.456       .  S
C346        C899   1.481       .  S
C346        O355   1.264       .  A
C346        O351   1.267       .  A
O347        C353   1.269       .  A
O347       Cd350   2.456       .  S
C348       C1171   1.479       .  S
C348        O356   1.266       .  A
C349        C848   1.491       .  S
C349        O354   1.269       .  A
C349        O352   1.264       .  A
Cd350       O357   2.455       .  S
Cd350       O356   2.432       .  S
Cd350       O355   2.410       .  S
Cd350       O351   2.488       .  S
Cd350       O354   2.495       .  S
Cd350       O352   2.444       .  S
C353        C864   1.493       .  S
C353        O357   1.262       .  A
C358        N359   1.360       .  A
C358        N363   1.363       .  A
C358        C851   1.492       .  S
N359        C360   1.361       .  A
C360        N361   1.357       .  A
N361        C362   1.356   1_455  A
C362        N363   1.358   1_655  A
C362       C1059   1.483       .  S
C364        C365   1.401       .  A
C364        C369   1.403       .  A
C365        C366   1.403       .  A
C365        H370   1.084       .  S
C366        C367   1.402       .  A
C367        C368   1.402       .  A
C367        H371   1.083       .  S
C368        C369   1.404       .  A
C369        H372   1.085       .  S
C373        N374   1.358       .  A
C373        N378   1.362       .  A
C373        C832   1.488       .  S
N374        C375   1.356       .  A
C375        N376   1.355       .  A
C375        C400   1.471       .  S
N376        C377   1.358       .  A
C377        N378   1.358       .  A
C377        C816   1.487       .  S
O379        C382   1.265       .  A
O379       Cd384   2.481       .  S
C380        C835   1.479       .  S
C380        O389   1.262       .  A
C380        O385   1.268       .  A
O381        C387   1.266       .  A
O381       Cd384   2.460       .  S
C382       C1491   1.482       .  S
C382        O390   1.265       .  A
C383        C784   1.487   1_545  S
C383        O388   1.266       .  A
C383        O386   1.263       .  A
Cd384       O391   2.465       .  S
Cd384       O390   2.475       .  S
Cd384       O389   2.413       .  S
Cd384       O385   2.466       .  S
Cd384       O388   2.487       .  S
Cd384       O386   2.440       .  S
C387        C800   1.487       .  S
C387        O391   1.266       .  A
C392        N393   1.358       .  A
C392        N397   1.353       .  A
C392       C1651   1.473       .  S
N393        C394   1.361       .  A
C394        N395   1.360       .  A
C394        C787   1.488       .  S
N395        C396   1.355       .  A
C396        N397   1.352       .  A
C396        C461   1.462       .  S
C398        C409   1.471       .  S
C398        C399   1.401       .  A
C398        C403   1.405       .  A
C399        C400   1.403       .  A
C399        H404   1.084       .  S
C400        C401   1.404       .  A
C401        C402   1.404       .  A
C401        H405   1.083       .  S
C402        C434   1.475       .  S
C402        C403   1.404       .  A
C403        H406   1.084       .  S
C407        N408   1.355       .  A
C407        N412   1.358       .  A
C407        C752   1.492       .  S
N408        C409   1.355       .  A
C409        N410   1.359       .  A
N410        C411   1.359       .  A
C411        N412   1.360       .  A
C411        C771   1.484       .  S
O413        C416   1.267       .  A
O413       Cd418   2.480       .  S
C414        C720   1.478       .  S
C414        O423   1.263       .  A
C414        O419   1.267       .  A
O415        C421   1.265       .  A
O415       Cd418   2.481       .  S
C416        C736   1.477       .  S
C416        O424   1.262       .  A
C417        C768   1.485       .  S
C417        O422   1.268       .  A
C417        O420   1.265       .  A
Cd418       O425   2.465       .  S
Cd418       O424   2.450       .  S
Cd418       O423   2.442       .  S
Cd418       O419   2.479       .  S
Cd418       O422   2.466       .  S
Cd418       O420   2.454       .  S
C421       C1680   1.488       .  S
C421        O425   1.264       .  A
C426        N427   1.356       .  A
C426        N431   1.355       .  A
C426       C1555   1.499       .  S
N427        C428   1.353       .  A
C428        N429   1.355       .  A
C428        C457   1.461       .  S
N429        C430   1.356       .  A
C430        N431   1.359       .  A
C430        C723   1.476       .  S
C432        N433   1.360       .  A
C432        N437   1.356       .  A
C432        C691   1.485       .  S
N433        C434   1.360       .  A
C434        N435   1.359       .  A
N435        C436   1.359       .  A
C436        N437   1.356       .  A
C436        C704   1.477       .  S
O438        C441   1.267       .  A
O438       Cd443   2.454       .  S
C439        C659   1.485       .  S
C439        O448   1.263       .  A
C439        O444   1.265       .  A
O440        C446   1.266       .  A
O440       Cd443   2.496       .  S
C441        C672   1.491       .  S
C441        O449   1.267       .  A
C442        C707   1.486       .  S
C442        O447   1.266       .  A
C442        O445   1.264       .  A
Cd443       O450   2.470       .  S
Cd443       O449   2.434       .  S
Cd443       O448   2.432       .  S
Cd443       O444   2.503       .  S
Cd443       O447   2.466       .  S
Cd443       O445   2.477       .  S
C446       C1587   1.488       .  S
C446        O450   1.265       .  A
C451        N452   1.356       .  A
C451        N456   1.359       .  A
C451        C656   1.477       .  S
N452        C453   1.355       .  A
C453        N454   1.356       .  A
C453        C459   1.464       .  S
N454        C455   1.358       .  A
C455        N456   1.358       .  A
C455       C1456   1.482       .  S
C457        C458   1.401       .  A
C457        C462   1.401       .  A
C458        C459   1.401       .  A
C458        H463   1.084       .  S
C459        C460   1.399       .  A
C460        C461   1.399       .  A
C460        H464   1.085       .  S
C461        C462   1.399       .  A
C462        H465   1.086       .  S
C466        N467   1.358   1_556  A
C466        N471   1.358       .  A
C466        C992   1.491       .  S
N467        C468   1.358       .  A
C468        N469   1.361       .  A
C468        C640   1.486       .  S
N469        C470   1.362       .  A
C470        N471   1.358   1_554  A
C470        C543   1.477       .  S
O472        C475   1.267       .  A
O472       Cd477   2.482       .  S
C473        C947   1.485       .  S
C473        O482   1.265   1_655  A
C473        O478   1.269       .  A
O474        C480   1.269       .  A
O474       Cd477   2.501       .  S
C475        C624   1.486       .  S
C475        O483   1.265       .  A
C476        C643   1.483       .  S
C476        O481   1.268       .  A
C476        O479   1.263       .  A
Cd477       O484   2.457   1_455  S
Cd477       O483   2.444       .  S
Cd477       O482   2.426       .  S
Cd477       O478   2.486   1_455  S
Cd477       O481   2.488       .  S
Cd477       O479   2.462       .  S
C480        C688   1.487   1_455  S
C480        O484   1.264   1_455  A
C485        N486   1.361       .  A
C485        N490   1.357       .  A
C485        C627   1.489       .  S
N486        C487   1.358       .  A
C487        N488   1.359       .  A
C487        C554   1.472       .  S
N488        C489   1.357       .  A
C489        N490   1.355       .  A
C489        C739   1.470       .  S
C491        N492   1.358       .  A
C491        N496   1.358       .  A
C491        C608   1.480       .  S
N492        C493   1.357   1_554  A
C493        N494   1.359       .  A
C493        C931   1.485       .  S
N494        C495   1.360   1_556  A
C495        N496   1.358       .  A
C495        C545   1.472       .  S
O497        C500   1.266       .  A
O497       Cd502   2.465       .  S
C498        C755   1.487       .  S
C498        O507   1.264       .  A
C498        O503   1.265       .  A
O499        C505   1.267       .  A
O499       Cd502   2.481       .  S
C500        C611   1.484       .  S
C500        O508   1.265       .  A
C501        C592   1.487       .  S
C501        O506   1.265       .  A
C501        O504   1.266       .  A
Cd502       O509   2.450       .  S
Cd502       O508   2.435       .  S
Cd502       O507   2.453       .  S
Cd502       O503   2.484       .  S
Cd502       O506   2.467       .  S
Cd502       O504   2.453       .  S
C505        C883   1.484       .  S
C505        O509   1.263       .  A
C510        N511   1.355   1_545  A
C510        N515   1.354       .  A
C510        C803   1.470       .  S
N511        C512   1.356       .  A
C512        N513   1.360       .  A
C512        C595   1.483       .  S
N513        C514   1.361   1_565  A
C514        N515   1.356       .  A
C514        C552   1.473   1_655  S
C516        N517   1.361   1_565  A
C516        N521   1.354   1_565  A
C516        C675   1.487       .  S
N517        C518   1.359       .  A
C518        N519   1.356       .  A
C518        C579   1.474       .  S
N519        C520   1.356       .  A
C520        N521   1.356       .  A
C520        C550   1.464       .  S
O522        C525   1.265       .  A
O522       Cd527   2.465       .  S
C523       C1008   1.481       .  S
C523        O532   1.263       .  A
C523        O528   1.266       .  A
O524        C530   1.268       .  A
O524       Cd527   2.476       .  S
C525        C576   1.480       .  S
C525        O533   1.265       .  A
C526        C563   1.490   1_545  S
C526        O531   1.266       .  A
C526        O529   1.261       .  A
Cd527       O534   2.439       .  S
Cd527       O533   2.425       .  S
Cd527       O532   2.447       .  S
Cd527       O528   2.458       .  S
Cd527       O531   2.481       .  S
Cd527       O529   2.452       .  S
C530        C819   1.483       .  S
C530        O534   1.264       .  A
C535        N536   1.355   1_556  A
C535        N540   1.355       .  A
C535        C867   1.490       .  S
N536        C537   1.360       .  A
C537        N538   1.360       .  A
C537        C560   1.488       .  S
N538        C539   1.358       .  A
C539        N540   1.353   1_554  A
C539        C541   1.466       .  S
C541        C542   1.403       .  A
C541        C546   1.401       .  A
C542        C543   1.401       .  A
C542        H547   1.084       .  S
C543        C544   1.406       .  A
C544        C545   1.405       .  A
C544        H548   1.084       .  S
C545        C546   1.402       .  A
C546        H549   1.083       .  S
C550        C551   1.399       .  A
C550        C555   1.402       .  A
C551        C552   1.400       .  A
C551        H556   1.084       .  S
C552        C553   1.406       .  A
C553        C554   1.404       .  A
C553        H557   1.084       .  S
C554        C555   1.401       .  A
C555        H558   1.084       .  S
C559        C560   1.405       .  A
C559        C564   1.405       .  A
C559        H566   1.083       .  S
C560        C561   1.420       .  A
C561        C562   1.409       .  A
C561        C568   1.521       .  S
C562        C563   1.407       .  A
C562        H567   1.082   1_565  S
C563        C564   1.423       .  A
C564        C565   1.522       .  S
C565        F569   1.385       .  S
C565        F570   1.383       .  S
C565        F571   1.383       .  S
C568        F572   1.383       .  S
C568        F573   1.383       .  S
C568        F574   1.384       .  S
C575        C576   1.403       .  A
C575        C580   1.400       .  A
C575        H582   1.084       .  S
C576        C577   1.420       .  A
C577        C578   1.408       .  A
C577        C584   1.519       .  S
C578        C579   1.403       .  A
C578        H583   1.084       .  S
C579        C580   1.414       .  A
C580        C581   1.516       .  S
C581        F585   1.385       .  S
C581        F586   1.378       .  S
C581        F587   1.384       .  S
C584        F588   1.383       .  S
C584        F589   1.383       .  S
C584        F590   1.385       .  S
C591        C592   1.406       .  A
C591        C596   1.406       .  A
C591        H598   1.083       .  S
C592        C593   1.421       .  A
C593        C594   1.408       .  A
C593        C600   1.520       .  S
C594        C595   1.403       .  A
C594        H599   1.083       .  S
C595        C596   1.419       .  A
C596        C597   1.521       .  S
C597        F601   1.385       .  S
C597        F602   1.382       .  S
C597        F603   1.384       .  S
C600        F604   1.384       .  S
C600        F605   1.383       .  S
C600        F606   1.385       .  S
C607        C608   1.404       .  A
C607        C612   1.408       .  A
C607        H614   1.084       .  S
C608        C609   1.418       .  A
C609        C610   1.404       .  A
C609        C616   1.521       .  S
C610        C611   1.404       .  A
C610        H615   1.083       .  S
C611        C612   1.419       .  A
C612        C613   1.519       .  S
C613        F617   1.384       .  S
C613        F618   1.383       .  S
C613        F619   1.384       .  S
C616        F620   1.383       .  S
C616        F621   1.382       .  S
C616        F622   1.385       .  S
C623        C624   1.405       .  A
C623        C628   1.407       .  A
C623        H630   1.083       .  S
C624        C625   1.417       .  A
C625        C626   1.407       .  A
C625        C632   1.518       .  S
C626        C627   1.406       .  A
C626        H631   1.083       .  S
C627        C628   1.423       .  A
C628        C629   1.523       .  S
C629        F633   1.385       .  S
C629        F634   1.384       .  S
C629        F635   1.383       .  S
C632        F636   1.382   1_455  S
C632        F637   1.384   1_455  S
C632        F638   1.385   1_455  S
C639        C640   1.405       .  A
C639        C644   1.410       .  A
C639        H646   1.083       .  S
C640        C641   1.419       .  A
C641        C642   1.409       .  A
C641        C648   1.518       .  S
C642        C643   1.402       .  A
C642        H647   1.083       .  S
C643        C644   1.419       .  A
C644        C645   1.521       .  S
C645        F649   1.385       .  S
C645        F650   1.383       .  S
C645        F651   1.384       .  S
C648        F652   1.384   1_554  S
C648        F653   1.381       .  S
C648        F654   1.385       .  S
C655        C656   1.404       .  A
C655        C660   1.410       .  A
C655        H662   1.083       .  S
C656        C657   1.414       .  A
C657        C658   1.402       .  A
C657        C664   1.519       .  S
C658        C659   1.405       .  A
C658        H663   1.083       .  S
C659        C660   1.421       .  A
C660        C661   1.518       .  S
C661        F665   1.385       .  S
C661        F666   1.383       .  S
C661        F667   1.383       .  S
C664        F668   1.381       .  S
C664        F669   1.384       .  S
C664        F670   1.385       .  S
C671        C672   1.409       .  A
C671        C676   1.407       .  A
C671        H678   1.082       .  S
C672        C673   1.421       .  A
C673        C674   1.404       .  A
C673        C680   1.521       .  S
C674        C675   1.403       .  A
C674        H679   1.077       .  S
C675        C676   1.419       .  A
C676        C677   1.521       .  S
C677        F681   1.385       .  S
C677        F682   1.383       .  S
C677        F683   1.382       .  S
C680        F684   1.383       .  S
C680        F685   1.383       .  S
C680        F686   1.385       .  S
C687        C688   1.405   1_455  A
C687        C692   1.411   1_455  A
C687        H694   1.082       .  S
C688        C689   1.421       .  A
C689        C690   1.407       .  A
C689        C696   1.520       .  S
C690        C691   1.402       .  A
C690        H695   1.082       .  S
C691        C692   1.420       .  A
C692        C693   1.521   1_655  S
C693        F697   1.384       .  S
C693        F698   1.384   1_455  S
C693        F699   1.382       .  S
C696        F700   1.382       .  S
C696        F701   1.383       .  S
C696        F702   1.385       .  S
C703        C704   1.400       .  A
C703        C708   1.406       .  A
C703        H710   1.083       .  S
C704        C705   1.416       .  A
C705        C706   1.410   1_655  A
C705        C712   1.520       .  S
C706        C707   1.408       .  A
C706        H711   1.084       .  S
C707        C708   1.419   1_455  A
C708        C709   1.518       .  S
C709        F713   1.384       .  S
C709        F714   1.382       .  S
C709        F715   1.384   1_655  S
C712        F716   1.384       .  S
C712        F717   1.383   1_655  S
C712        F718   1.384   1_655  S
C719        C720   1.406       .  A
C719        C724   1.410       .  A
C719        H726   1.063       .  S
C720        C721   1.415       .  A
C721        C722   1.401       .  A
C721        C728   1.516       .  S
C722        C723   1.401       .  A
C722        H727   1.078       .  S
C723        C724   1.418       .  A
C724        C725   1.520       .  S
C725        F729   1.385       .  S
C725        F730   1.382       .  S
C725        F731   1.383       .  S
C728        F732   1.381       .  S
C728        F733   1.382       .  S
C728        F734   1.385       .  S
C735        C736   1.403       .  A
C735        C740   1.406       .  A
C735        H742   1.084       .  S
C736        C737   1.420       .  A
C737        C738   1.408       .  A
C737        C744   1.520       .  S
C738        C739   1.400       .  A
C738        H743   1.083       .  S
C739        C740   1.413       .  A
C740        C741   1.518       .  S
C741        F745   1.384       .  S
C741        F746   1.383       .  S
C741        F747   1.383       .  S
C744        F748   1.382       .  S
C744        F749   1.384       .  S
C744        F750   1.385       .  S
C751        C752   1.408       .  A
C751        C756   1.408       .  A
C751        H758   1.082       .  S
C752        C753   1.423       .  A
C753        C754   1.407       .  A
C753        C760   1.522       .  S
C754        C755   1.404       .  A
C754        H759   1.083       .  S
C755        C756   1.419       .  A
C756        C757   1.519       .  S
C757        F761   1.385       .  S
C757        F762   1.383       .  S
C757        F763   1.383       .  S
C760        F764   1.384       .  S
C760        F765   1.383       .  S
C760        F766   1.384       .  S
C767        C768   1.405       .  A
C767        C772   1.409       .  A
C767        H774   1.083       .  S
C768        C769   1.418       .  A
C769        C770   1.403       .  A
C769        C776   1.517       .  S
C770        C771   1.403       .  A
C770        H775   1.083       .  S
C771        C772   1.419       .  A
C772        C773   1.518       .  S
C773        F777   1.385       .  S
C773        F778   1.383       .  S
C773        F779   1.383       .  S
C776        F780   1.381       .  S
C776        F781   1.382       .  S
C776        F782   1.385       .  S
C783        C784   1.406   1_545  A
C783        C788   1.407   1_545  A
C783        H790   1.084       .  S
C784        C785   1.418       .  A
C785        C786   1.406       .  A
C785        C792   1.519       .  S
C786        C787   1.407       .  A
C786        H791   1.083       .  S
C787        C788   1.421       .  A
C788        C789   1.521   1_565  S
C789        F793   1.385       .  S
C789        F794   1.382       .  S
C789        F795   1.384   1_545  S
C792        F796   1.383       .  S
C792        F797   1.383       .  S
C792        F798   1.385       .  S
C799        C800   1.410       .  A
C799        C804   1.408       .  A
C799        H806   1.082       .  S
C800        C801   1.422       .  A
C801        C802   1.404   1_545  A
C801        C808   1.519   1_545  S
C802        C803   1.398   1_565  A
C802        H807   1.083       .  S
C803        C804   1.412       .  A
C804        C805   1.520       .  S
C805        F809   1.384       .  S
C805        F810   1.384       .  S
C805        F811   1.382       .  S
C808        F812   1.383       .  S
C808        F813   1.384       .  S
C808        F814   1.385       .  S
C815        C816   1.405       .  A
C815        C820   1.403       .  A
C815        H822   1.082       .  S
C816        C817   1.420       .  A
C817        C818   1.410       .  A
C817        C824   1.519       .  S
C818        C819   1.406       .  A
C818        H823   1.083       .  S
C819        C820   1.418       .  A
C820        C821   1.521       .  S
C821        F825   1.385       .  S
C821        F826   1.382       .  S
C821        F827   1.383       .  S
C824        F828   1.384       .  S
C824        F829   1.383       .  S
C824        F830   1.385       .  S
C831        C832   1.407       .  A
C831        C836   1.405       .  A
C831        H838   1.083       .  S
C832        C833   1.423       .  A
C833        C834   1.407       .  A
C833        C840   1.521       .  S
C834        C835   1.402       .  A
C834        H839   1.083       .  S
C835        C836   1.418       .  A
C836        C837   1.522       .  S
C837        F841   1.384       .  S
C837        F842   1.383       .  S
C837        F843   1.385       .  S
C840        F844   1.383       .  S
C840        F845   1.383       .  S
C840        F846   1.385       .  S
C847        C848   1.407       .  A
C847        C852   1.413       .  A
C847        H854   1.082       .  S
C848        C849   1.420       .  A
C849        C850   1.404       .  A
C849        C856   1.520       .  S
C850        C851   1.402       .  A
C850        H855   1.080       .  S
C851        C852   1.422       .  A
C852        C853   1.519       .  S
C853        F857   1.385       .  S
C853        F858   1.383       .  S
C853        F859   1.383       .  S
C856        F860   1.383       .  S
C856        F861   1.384       .  S
C856        F862   1.385       .  S
C863        C864   1.407       .  A
C863        C868   1.406       .  A
C863        H870   1.082       .  S
C864        C865   1.425       .  A
C865        C866   1.405       .  A
C865        C872   1.523       .  S
C866        C867   1.406       .  A
C866        H871   1.082       .  S
C867        C868   1.421       .  A
C868        C869   1.522       .  S
C869        F873   1.385       .  S
C869        F874   1.383       .  S
C869        F875   1.383       .  S
C872        F876   1.383       .  S
C872        F877   1.383       .  S
C872        F878   1.386       .  S
C879        C880   1.398       .  A
C879        C884   1.406       .  A
C879        H886   1.084   1_554  S
C880        C881   1.414       .  A
C881        C882   1.408       .  A
C881        C888   1.517       .  S
C882        C883   1.406       .  A
C882        H887   1.083       .  S
C883        C884   1.421       .  A
C884        C885   1.518       .  S
C885        F889   1.385   1_554  S
C885        F890   1.384       .  S
C885        F891   1.381       .  S
C888        F892   1.383       .  S
C888        F893   1.383       .  S
C888        F894   1.385       .  S
C895        C896   1.405       .  A
C895        C900   1.407       .  A
C895        H902   1.083       .  S
C896        C897   1.418       .  A
C897        C898   1.403       .  A
C897        C904   1.521       .  S
C898        C899   1.404   1_655  A
C898        H903   1.083       .  S
C899        C900   1.419   1_455  A
C900        C901   1.519   1_655  S
C901        F905   1.385   1_455  S
C901        F906   1.383       .  S
C901        F907   1.383       .  S
C904        F908   1.382       .  S
C904        F909   1.383       .  S
C904        F910   1.385       .  S
C911        C912   1.404       .  A
C911        C916   1.403       .  A
C911        H918   1.083       .  S
C912        C913   1.420       .  A
C913        C914   1.411       .  A
C913        C920   1.520       .  S
C914        C915   1.407       .  A
C914        H919   1.082       .  S
C915        C916   1.421       .  A
C916        C917   1.521       .  S
C917        F921   1.385       .  S
C917        F922   1.382       .  S
C917        F923   1.383       .  S
C920        F924   1.383       .  S
C920        F925   1.384       .  S
C920        F926   1.384   1_545  S
C927        C928   1.408       .  A
C927        C932   1.409       .  A
C927        H934   1.082       .  S
C928        C929   1.423       .  A
C929        C930   1.411       .  A
C929        C936   1.519       .  S
C930        C931   1.404       .  A
C930        H935   1.083       .  S
C931        C932   1.416       .  A
C932        C933   1.519       .  S
C933        F937   1.384       .  S
C933        F938   1.384   1_556  S
C933        F939   1.381       .  S
C936        F940   1.383       .  S
C936        F941   1.383       .  S
C936        F942   1.385       .  S
C943        C944   1.411       .  A
C943        C948   1.408       .  A
C943        H950   1.082       .  S
C944        C945   1.426       .  A
C945        C946   1.406       .  A
C945        C952   1.524       .  S
C946        C947   1.403       .  A
C946        H951   1.082       .  S
C947        C948   1.416       .  A
C948        C949   1.519       .  S
C949        F953   1.385       .  S
C949        F954   1.383       .  S
C949        F955   1.383   1_655  S
C952        F956   1.384       .  S
C952        F957   1.383       .  S
C952        F958   1.384       .  S
C959        C960   1.398       .  A
C959        C964   1.405       .  A
C959        H966   1.084       .  S
C960        C961   1.410       .  A
C961        C962   1.407       .  A
C961        C968   1.518       .  S
C962        C963   1.407       .  A
C962        H967   1.083       .  S
C963        C964   1.422       .  A
C964        C965   1.519       .  S
C965        F969   1.385       .  S
C965        F970   1.383       .  S
C965        F971   1.382       .  S
C968        F972   1.382       .  S
C968        F973   1.384       .  S
C968        F974   1.384       .  S
C975        C976   1.402       .  A
C975        C980   1.407       .  A
C975        H982   1.082       .  S
C976        C977   1.420       .  A
C977        C978   1.409       .  A
C977        C984   1.520       .  S
C978        C979   1.404       .  A
C978        H983   1.083       .  S
C979        C980   1.422       .  A
C980        C981   1.521       .  S
C981        F985   1.385       .  S
C981        F986   1.383       .  S
C981        F987   1.384       .  S
C984        F988   1.382       .  S
C984        F989   1.384       .  S
C984        F990   1.385       .  S
C991        C992   1.405       .  A
C991        C996   1.409       .  A
C991        H998   1.083       .  S
C992        C993   1.421       .  A
C993        C994   1.407       .  A
C993       C1000   1.521       .  S
C994        C995   1.406       .  A
C994        H999   1.082       .  S
C995        C996   1.426       .  A
C996        C997   1.524       .  S
C997       F1001   1.385       .  S
C997       F1002   1.384       .  S
C997       F1003   1.384       .  S
C1000      F1004   1.384       .  S
C1000      F1005   1.383       .  S
C1000      F1006   1.384       .  S
C1007      C1008   1.405       .  A
C1007      C1012   1.406       .  A
C1007      H1014   1.083       .  S
C1008      C1009   1.420       .  A
C1009      C1010   1.405       .  A
C1009      C1016   1.520       .  S
C1010      C1011   1.403       .  A
C1010      H1015   1.083   1_554  S
C1011      C1012   1.417       .  A
C1012      C1013   1.520       .  S
C1013      F1017   1.385       .  S
C1013      F1018   1.382       .  S
C1013      F1019   1.384       .  S
C1016      F1020   1.384       .  S
C1016      F1021   1.383       .  S
C1016      F1022   1.385       .  S
C1023      C1024   1.403       .  A
C1023      C1028   1.408       .  A
C1023      H1030   1.083       .  S
C1024      C1025   1.419       .  A
C1025      C1026   1.407       .  A
C1025      C1032   1.520       .  S
C1026      C1027   1.406       .  A
C1026      H1031   1.083       .  S
C1027      C1028   1.421       .  A
C1028      C1029   1.520       .  S
C1029      F1033   1.385       .  S
C1029      F1034   1.382       .  S
C1029      F1035   1.384       .  S
C1032      F1036   1.384       .  S
C1032      F1037   1.383       .  S
C1032      F1038   1.384       .  S
C1039      C1040   1.407       .  A
C1039      C1044   1.410       .  A
C1039      H1046   1.083       .  S
C1040      C1041   1.422       .  A
C1041      C1042   1.405       .  A
C1041      C1048   1.518       .  S
C1042      C1043   1.400       .  A
C1042      H1047   1.084       .  S
C1043      C1044   1.415       .  A
C1044      C1045   1.518       .  S
C1045      F1049   1.385       .  S
C1045      F1050   1.384       .  S
C1045      F1051   1.382       .  S
C1048      F1052   1.382       .  S
C1048      F1053   1.383       .  S
C1048      F1054   1.385       .  S
C1055      C1056   1.404       .  A
C1055      C1060   1.407       .  A
C1055      H1062   1.082       .  S
C1056      C1057   1.424       .  A
C1057      C1058   1.409       .  A
C1057      C1064   1.520       .  S
C1058      C1059   1.401       .  A
C1058      H1063   1.083       .  S
C1059      C1060   1.417       .  A
C1060      C1061   1.517   1_655  S
C1061      F1065   1.385       .  S
C1061      F1066   1.381       .  S
C1061      F1067   1.383       .  S
C1064      F1068   1.384       .  S
C1064      F1069   1.382       .  S
C1064      F1070   1.386       .  S
C1071      C1072   1.410       .  A
C1071      C1076   1.405       .  A
C1071      H1078   1.082       .  S
C1072      C1073   1.423       .  A
C1073      C1074   1.409       .  A
C1073      C1080   1.521       .  S
C1074      C1075   1.404       .  A
C1074      H1079   1.083       .  S
C1075      C1076   1.416       .  A
C1076      C1077   1.522       .  S
C1077      F1081   1.385       .  S
C1077      F1082   1.383       .  S
C1077      F1083   1.382       .  S
C1080      F1084   1.383       .  S
C1080      F1085   1.384       .  S
C1080      F1086   1.385       .  S
C1087      C1088   1.400       .  A
C1087      C1092   1.402       .  A
C1087      H1094   1.083       .  S
C1088      C1089   1.413       .  A
C1089      C1090   1.407       .  A
C1089      C1096   1.517       .  S
C1090      C1091   1.407       .  A
C1090      H1095   1.083       .  S
C1091      C1092   1.421       .  A
C1092      C1093   1.519       .  S
C1093      F1097   1.385       .  S
C1093      F1098   1.382       .  S
C1093      F1099   1.382       .  S
C1096      F1100   1.384       .  S
C1096      F1101   1.382       .  S
C1096      F1102   1.384       .  S
C1103      C1104   1.405       .  A
C1103      C1108   1.406       .  A
C1103      H1110   1.083       .  S
C1104      C1105   1.418       .  A
C1105      C1106   1.405       .  A
C1105      C1112   1.520       .  S
C1106      C1107   1.405       .  A
C1106      H1111   1.083       .  S
C1107      C1108   1.418       .  A
C1108      C1109   1.519       .  S
C1109      F1113   1.385       .  S
C1109      F1114   1.383       .  S
C1109      F1115   1.383       .  S
C1112      F1116   1.384       .  S
C1112      F1117   1.381       .  S
C1112      F1118   1.385       .  S
C1119      C1120   1.403       .  A
C1119      C1124   1.410       .  A
C1119      H1126   1.084       .  S
C1120      C1121   1.417       .  A
C1121      C1122   1.405       .  A
C1121      C1128   1.522       .  S
C1122      C1123   1.408       .  A
C1122      H1127   1.083       .  S
C1123      C1124   1.421       .  A
C1124      C1125   1.519       .  S
C1125      F1129   1.385       .  S
C1125      F1130   1.384       .  S
C1125      F1131   1.382       .  S
C1128      F1132   1.383       .  S
C1128      F1133   1.384       .  S
C1128      F1134   1.384       .  S
C1135      C1136   1.408   1_545  A
C1135      C1140   1.411       .  A
C1135      H1142   1.083       .  S
C1136      C1137   1.423       .  A
C1137      C1138   1.402       .  A
C1137      C1144   1.524       .  S
C1138      C1139   1.403   1_565  A
C1138      H1143   1.082       .  S
C1139      C1140   1.422       .  A
C1140      C1141   1.520       .  S
C1141      F1145   1.385       .  S
C1141      F1146   1.383       .  S
C1141      F1147   1.383       .  S
C1144      F1148   1.382       .  S
C1144      F1149   1.384       .  S
C1144      F1150   1.385       .  S
C1151      C1152   1.403       .  A
C1151      C1156   1.406       .  A
C1151      H1158   1.083       .  S
C1152      C1153   1.421       .  A
C1153      C1154   1.406   1_565  A
C1153      C1160   1.522       .  S
C1154      C1155   1.403       .  A
C1154      H1159   1.083       .  S
C1155      C1156   1.417   1_545  A
C1156      C1157   1.520       .  S
C1157      F1161   1.384       .  S
C1157      F1162   1.385   1_565  S
C1157      F1163   1.382       .  S
C1160      F1164   1.383   1_565  S
C1160      F1165   1.384       .  S
C1160      F1166   1.385   1_565  S
C1167      C1168   1.407       .  A
C1167      C1172   1.407       .  A
C1167      H1174   1.083       .  S
C1168      C1169   1.422       .  A
C1169      C1170   1.404       .  A
C1169      C1176   1.523       .  S
C1170      C1171   1.403       .  A
C1170      H1175   1.083       .  S
C1171      C1172   1.417       .  A
C1172      C1173   1.521       .  S
C1173      F1177   1.384       .  S
C1173      F1178   1.384       .  S
C1173      F1179   1.383       .  S
C1176      F1180   1.383       .  S
C1176      F1181   1.384       .  S
C1176      F1182   1.384       .  S
C1183      C1184   1.406       .  A
C1183      C1188   1.405       .  A
C1183      H1190   1.083       .  S
C1184      C1185   1.423       .  A
C1185      C1186   1.405       .  A
C1185      C1192   1.522       .  S
C1186      C1187   1.406       .  A
C1186      H1191   1.083       .  S
C1187      C1188   1.420       .  A
C1188      C1189   1.520       .  S
C1189      F1193   1.385       .  S
C1189      F1194   1.384       .  S
C1189      F1195   1.382       .  S
C1192      F1196   1.383       .  S
C1192      F1197   1.382       .  S
C1192      F1198   1.386       .  S
C1199      C1200   1.407       .  A
C1199      C1204   1.408   1_455  A
C1199      H1206   1.083   1_455  S
C1200      C1201   1.427       .  A
C1201      C1202   1.407       .  A
C1201      C1208   1.523       .  S
C1202      C1203   1.403       .  A
C1202      H1207   1.084       .  S
C1203      C1204   1.420   1_455  A
C1204      C1205   1.520       .  S
C1205      F1209   1.385       .  S
C1205      F1210   1.382       .  S
C1205      F1211   1.383       .  S
C1208      F1212   1.383       .  S
C1208      F1213   1.383       .  S
C1208      F1214   1.386       .  S
C1215      C1216   1.409       .  A
C1215      C1220   1.410       .  A
C1215      H1222   1.083       .  S
C1216      C1217   1.424       .  A
C1217      C1218   1.410   1_655  A
C1217      C1224   1.520   1_655  S
C1218      C1219   1.404       .  A
C1218      H1223   1.083       .  S
C1219      C1220   1.418   1_455  A
C1220      C1221   1.519       .  S
C1221      F1225   1.384       .  S
C1221      F1226   1.384       .  S
C1221      F1227   1.383       .  S
C1224      F1228   1.382       .  S
C1224      F1229   1.384   1_455  S
C1224      F1230   1.385       .  S
C1231      C1232   1.407       .  A
C1231      C1236   1.408   1_545  A
C1231      H1238   1.083   1_545  S
C1232      C1233   1.426       .  A
C1233      C1234   1.408       .  A
C1233      C1240   1.521       .  S
C1234      C1235   1.400       .  A
C1234      H1239   1.084       .  S
C1235      C1236   1.416   1_545  A
C1236      C1237   1.518       .  S
C1237      F1241   1.385       .  S
C1237      F1242   1.381       .  S
C1237      F1243   1.383       .  S
C1240      F1244   1.384       .  S
C1240      F1245   1.383       .  S
C1240      F1246   1.385       .  S
C1247      C1248   1.404       .  A
C1247      C1252   1.406       .  A
C1247      H1254   1.083       .  S
C1248      C1249   1.420       .  A
C1249      C1250   1.407       .  A
C1249      C1256   1.521       .  S
C1250      C1251   1.404       .  A
C1250      H1255   1.084       .  S
C1251      C1252   1.417       .  A
C1252      C1253   1.518       .  S
C1253      F1257   1.385   1_455  S
C1253      F1258   1.382       .  S
C1253      F1259   1.382       .  S
C1256      F1260   1.385       .  S
C1256      F1261   1.383       .  S
C1256      F1262   1.384       .  S
C1263      C1264   1.403       .  A
C1263      C1268   1.407       .  A
C1263      H1270   1.083       .  S
C1264      C1265   1.419   1_655  A
C1265      C1266   1.408   1_455  A
C1265      C1272   1.519       .  S
C1266      C1267   1.407       .  A
C1266      H1271   1.082   1_655  S
C1267      C1268   1.429       .  A
C1268      C1269   1.525       .  S
C1269      F1273   1.386       .  S
C1269      F1274   1.383       .  S
C1269      F1275   1.383       .  S
C1272      F1276   1.383       .  S
C1272      F1277   1.383       .  S
C1272      F1278   1.385       .  S
C1279      C1280   1.401       .  A
C1279      C1284   1.405       .  A
C1279      H1286   1.083       .  S
C1280      C1281   1.416       .  A
C1281      C1282   1.410       .  A
C1281      C1288   1.519       .  S
C1282      C1283   1.405       .  A
C1282      H1287   1.083       .  S
C1283      C1284   1.417       .  A
C1284      C1285   1.518       .  S
C1285      F1289   1.386       .  S
C1285      F1290   1.383       .  S
C1285      F1291   1.380       .  S
C1288      F1292   1.383       .  S
C1288      F1293   1.384       .  S
C1288      F1294   1.384       .  S
C1295      C1296   1.405       .  A
C1295      C1300   1.404       .  A
C1295      H1302   1.083       .  S
C1296      C1297   1.420       .  A
C1297      C1298   1.410       .  A
C1297      C1304   1.518       .  S
C1298      C1299   1.403       .  A
C1298      H1303   1.084       .  S
C1299      C1300   1.411       .  A
C1300      C1301   1.518       .  S
C1301      F1305   1.384       .  S
C1301      F1306   1.382       .  S
C1301      F1307   1.384       .  S
C1304      F1308   1.383       .  S
C1304      F1309   1.382       .  S
C1304      F1310   1.385       .  S
C1311      C1312   1.402       .  A
C1311      C1316   1.408       .  A
C1311      H1318   1.082       .  S
C1312      C1313   1.418       .  A
C1313      C1314   1.405       .  A
C1313      C1320   1.521       .  S
C1314      C1315   1.408       .  A
C1314      H1319   1.082       .  S
C1315      C1316   1.425       .  A
C1316      C1317   1.522       .  S
C1317      F1321   1.385       .  S
C1317      F1322   1.384       .  S
C1317      F1323   1.382       .  S
C1320      F1324   1.383       .  S
C1320      F1325   1.383       .  S
C1320      F1326   1.385       .  S
C1327      C1328   1.409       .  A
C1327      C1332   1.407       .  A
C1327      H1334   1.083       .  S
C1328      C1329   1.421       .  A
C1329      C1330   1.406       .  A
C1329      C1336   1.519       .  S
C1330      C1331   1.402       .  A
C1330      H1335   1.083       .  S
C1331      C1332   1.414       .  A
C1332      C1333   1.519       .  S
C1333      F1337   1.385       .  S
C1333      F1338   1.383       .  S
C1333      F1339   1.382       .  S
C1336      F1340   1.382       .  S
C1336      F1341   1.383       .  S
C1336      F1342   1.386       .  S
C1343      C1344   1.402       .  A
C1343      C1348   1.405       .  A
C1343      H1350   1.083       .  S
C1344      C1345   1.416       .  A
C1345      C1346   1.410       .  A
C1345      C1352   1.519       .  S
C1346      C1347   1.412       .  A
C1346      H1351   1.081       .  S
C1347      C1348   1.429       .  A
C1348      C1349   1.524       .  S
C1349      F1353   1.385       .  S
C1349      F1354   1.383       .  S
C1349      F1355   1.383       .  S
C1352      F1356   1.383       .  S
C1352      F1357   1.383       .  S
C1352      F1358   1.385       .  S
C1359      C1360   1.408       .  A
C1359      C1364   1.411       .  A
C1359      H1366   1.082       .  S
C1360      C1361   1.423       .  A
C1361      C1362   1.405       .  A
C1361      C1368   1.524   1_565  S
C1362      C1363   1.406       .  A
C1362      H1367   1.081       .  S
C1363      C1364   1.423       .  A
C1364      C1365   1.520       .  S
C1365      F1369   1.386       .  S
C1365      F1370   1.383       .  S
C1365      F1371   1.383       .  S
C1368      F1372   1.384       .  S
C1368      F1373   1.383   1_645  S
C1368      F1374   1.384   1_545  S
C1375      C1376   1.403       .  A
C1375      C1380   1.405       .  A
C1375      H1382   1.084       .  S
C1376      C1377   1.415       .  A
C1377      C1378   1.405       .  A
C1377      C1384   1.520       .  S
C1378      C1379   1.406       .  A
C1378      H1383   1.083       .  S
C1379      C1380   1.419       .  A
C1380      C1381   1.520       .  S
C1381      F1385   1.385       .  S
C1381      F1386   1.384       .  S
C1381      F1387   1.383       .  S
C1384      F1388   1.383       .  S
C1384      F1389   1.383       .  S
C1384      F1390   1.384       .  S
C1391      C1392   1.404       .  A
C1391      C1396   1.408       .  A
C1391      H1398   1.083       .  S
C1392      C1393   1.424       .  A
C1393      C1394   1.409       .  A
C1393      C1400   1.521       .  S
C1394      C1395   1.402       .  A
C1394      H1399   1.083       .  S
C1395      C1396   1.419       .  A
C1396      C1397   1.519       .  S
C1397      F1401   1.385       .  S
C1397      F1402   1.383       .  S
C1397      F1403   1.381       .  S
C1400      F1404   1.382       .  S
C1400      F1405   1.383       .  S
C1400      F1406   1.386       .  S
C1407      C1408   1.404       .  A
C1407      C1412   1.411   1_545  A
C1407      H1414   1.084       .  S
C1408      C1409   1.420   1_545  A
C1409      C1410   1.411       .  A
C1409      C1416   1.518       .  S
C1410      C1411   1.403       .  A
C1410      H1415   1.084       .  S
C1411      C1412   1.416       .  A
C1412      C1413   1.516       .  S
C1413      F1417   1.385   1_565  S
C1413      F1418   1.381       .  S
C1413      F1419   1.384       .  S
C1416      F1420   1.383       .  S
C1416      F1421   1.382   1_565  S
C1416      F1422   1.385       .  S
C1423      C1424   1.403       .  A
C1423      C1428   1.405       .  A
C1423      H1430   1.083       .  S
C1424      C1425   1.413       .  A
C1425      C1426   1.405       .  A
C1425      C1432   1.519       .  S
C1426      C1427   1.406       .  A
C1426      H1431   1.083       .  S
C1427      C1428   1.419       .  A
C1428      C1429   1.521       .  S
C1429      F1433   1.384       .  S
C1429      F1434   1.383       .  S
C1429      F1435   1.384       .  S
C1432      F1436   1.384       .  S
C1432      F1437   1.381       .  S
C1432      F1438   1.384       .  S
C1439      C1440   1.402       .  A
C1439      C1444   1.405       .  A
C1439      H1446   1.084   1_655  S
C1440      C1441   1.420       .  A
C1441      C1442   1.412       .  A
C1441      C1448   1.519       .  S
C1442      C1443   1.407       .  A
C1442      H1447   1.083       .  S
C1443      C1444   1.427       .  A
C1444      C1445   1.523       .  S
C1445      F1449   1.385   1_655  S
C1445      F1450   1.383       .  S
C1445      F1451   1.383       .  S
C1448      F1452   1.384       .  S
C1448      F1453   1.383       .  S
C1448      F1454   1.384       .  S
C1455      C1456   1.402       .  A
C1455      C1460   1.405       .  A
C1455      H1462   1.083       .  S
C1456      C1457   1.419       .  A
C1457      C1458   1.410       .  A
C1457      C1464   1.521       .  S
C1458      C1459   1.407       .  A
C1458      H1463   1.083       .  S
C1459      C1460   1.422       .  A
C1460      C1461   1.521       .  S
C1461      F1465   1.385       .  S
C1461      F1466   1.384       .  S
C1461      F1467   1.383       .  S
C1464      F1468   1.383       .  S
C1464      F1469   1.384       .  S
C1464      F1470   1.385       .  S
C1471      C1472   1.409       .  A
C1471      C1476   1.408       .  A
C1471      H1478   1.083       .  S
C1472      C1473   1.423       .  A
C1473      C1474   1.409       .  A
C1473      C1480   1.521       .  S
C1474      C1475   1.405       .  A
C1474      H1479   1.080       .  S
C1475      C1476   1.415       .  A
C1476      C1477   1.519       .  S
C1477      F1481   1.384       .  S
C1477      F1482   1.382       .  S
C1477      F1483   1.385       .  S
C1480      F1484   1.383       .  S
C1480      F1485   1.383       .  S
C1480      F1486   1.385       .  S
C1487      C1488   1.403       .  A
C1487      C1492   1.408       .  A
C1487      H1494   1.083       .  S
C1488      C1489   1.426       .  A
C1489      C1490   1.409       .  A
C1489      C1496   1.523   1_655  S
C1490      C1491   1.401       .  A
C1490      H1495   1.084       .  S
C1491      C1492   1.416       .  A
C1492      C1493   1.516       .  S
C1493      F1497   1.383       .  S
C1493      F1498   1.382       .  S
C1493      F1499   1.385       .  S
C1496      F1500   1.382       .  S
C1496      F1501   1.384       .  S
C1496      F1502   1.385       .  S
C1503      C1504   1.406       .  A
C1503      C1508   1.411       .  A
C1503      H1510   1.083   1_455  S
C1504      C1505   1.421       .  A
C1505      C1506   1.410       .  A
C1505      C1512   1.519       .  S
C1506      C1507   1.403       .  A
C1506      H1511   1.083       .  S
C1507      C1508   1.418       .  A
C1508      C1509   1.519   1_455  S
C1509      F1513   1.384       .  S
C1509      F1514   1.382       .  S
C1509      F1515   1.384       .  S
C1512      F1516   1.383       .  S
C1512      F1517   1.382       .  S
C1512      F1518   1.385       .  S
C1519      C1520   1.405       .  A
C1519      C1524   1.409       .  A
C1519      H1526   1.083       .  S
C1520      C1521   1.419       .  A
C1521      C1522   1.404       .  A
C1521      C1528   1.522       .  S
C1522      C1523   1.402       .  A
C1522      H1527   1.084       .  S
C1523      C1524   1.418       .  A
C1524      C1525   1.519       .  S
C1525      F1529   1.385       .  S
C1525      F1530   1.383   1_655  S
C1525      F1531   1.383       .  S
C1528      F1532   1.382       .  S
C1528      F1533   1.384       .  S
C1528      F1534   1.384       .  S
C1535      C1536   1.404       .  A
C1535      C1540   1.409       .  A
C1535      H1542   1.083       .  S
C1536      C1537   1.418       .  A
C1537      C1538   1.404       .  A
C1537      C1544   1.522       .  S
C1538      C1539   1.404       .  A
C1538      H1543   1.083       .  S
C1539      C1540   1.421       .  A
C1540      C1541   1.521       .  S
C1541      F1545   1.384       .  S
C1541      F1546   1.383       .  S
C1541      F1547   1.384       .  S
C1544      F1548   1.384       .  S
C1544      F1549   1.382       .  S
C1544      F1550   1.384       .  S
C1551      C1552   1.402       .  A
C1551      C1556   1.406       .  A
C1551      H1558   1.083       .  S
C1552      C1553   1.417       .  A
C1553      C1554   1.402       .  A
C1553      C1560   1.524       .  S
C1554      C1555   1.412       .  A
C1554      H1559   1.081       .  S
C1555      C1556   1.428       .  A
C1556      C1557   1.523       .  S
C1557      F1561   1.385       .  S
C1557      F1562   1.383       .  S
C1557      F1563   1.383       .  S
C1560      F1564   1.382       .  S
C1560      F1565   1.383       .  S
C1560      F1566   1.386       .  S
C1567      C1568   1.404       .  A
C1567      C1572   1.409       .  A
C1567      H1574   1.083       .  S
C1568      C1569   1.417       .  A
C1569      C1570   1.410       .  A
C1569      C1576   1.519       .  S
C1570      C1571   1.409       .  A
C1570      H1575   1.082       .  S
C1571      C1572   1.427       .  A
C1572      C1573   1.523       .  S
C1573      F1577   1.385       .  S
C1573      F1578   1.383       .  S
C1573      F1579   1.383       .  S
C1576      F1580   1.382       .  S
C1576      F1581   1.384       .  S
C1576      F1582   1.384       .  S
C1583      C1584   1.407       .  A
C1583      C1588   1.411       .  A
C1583      H1590   1.081   1_455  S
C1584      C1585   1.424       .  A
C1585      C1586   1.408       .  A
C1585      C1592   1.522       .  S
C1586      C1587   1.403       .  A
C1586      H1591   1.084       .  S
C1587      C1588   1.418       .  A
C1588      C1589   1.518       .  S
C1589      F1593   1.385   1_455  S
C1589      F1594   1.383       .  S
C1589      F1595   1.383   1_455  S
C1592      F1596   1.382   1_565  S
C1592      F1597   1.384       .  S
C1592      F1598   1.385       .  S
C1599      C1600   1.412       .  A
C1599      C1604   1.408       .  A
C1599      H1606   1.081       .  S
C1600      C1601   1.424       .  A
C1601      C1602   1.410       .  A
C1601      C1608   1.521       .  S
C1602      C1603   1.407       .  A
C1602      H1607   1.082       .  S
C1603      C1604   1.417       .  A
C1604      C1605   1.521       .  S
C1605      F1609   1.384       .  S
C1605      F1610   1.383       .  S
C1605      F1611   1.384       .  S
C1608      F1612   1.383       .  S
C1608      F1613   1.383       .  S
C1608      F1614   1.385       .  S
C1615      C1616   1.404       .  A
C1615      C1620   1.411       .  A
C1615      H1622   1.083       .  S
C1616      C1617   1.419       .  A
C1617      C1618   1.406       .  A
C1617      C1624   1.519       .  S
C1618      C1619   1.402       .  A
C1618      H1623   1.084       .  S
C1619      C1620   1.419       .  A
C1620      C1621   1.519       .  S
C1621      F1625   1.384       .  S
C1621      F1626   1.384       .  S
C1621      F1627   1.383       .  S
C1624      F1628   1.382       .  S
C1624      F1629   1.384       .  S
C1624      F1630   1.385       .  S
C1631      C1632   1.409       .  A
C1631      C1636   1.408       .  A
C1631      H1638   1.082       .  S
C1632      C1633   1.426       .  A
C1633      C1634   1.408       .  A
C1633      C1640   1.522       .  S
C1634      C1635   1.405       .  A
C1634      H1639   1.083       .  S
C1635      C1636   1.418       .  A
C1636      C1637   1.519       .  S
C1637      F1641   1.385       .  S
C1637      F1642   1.384       .  S
C1637      F1643   1.383       .  S
C1640      F1644   1.383       .  S
C1640      F1645   1.383       .  S
C1640      F1646   1.385       .  S
C1647      C1648   1.410       .  A
C1647      C1652   1.409       .  A
C1647      H1654   1.083   1_565  S
C1648      C1649   1.427       .  A
C1649      C1650   1.404       .  A
C1649      C1656   1.522       .  S
C1650      C1651   1.398       .  A
C1650      H1655   1.083       .  S
C1651      C1652   1.413       .  A
C1652      C1653   1.519       .  S
C1653      F1657   1.384   1_565  S
C1653      F1658   1.382   1_565  S
C1653      F1659   1.384       .  S
C1656      F1660   1.383       .  S
C1656      F1661   1.383       .  S
C1656      F1662   1.385       .  S
C1663      C1664   1.403       .  A
C1663      C1668   1.409       .  A
C1663      H1670   1.081       .  S
C1664      C1665   1.417       .  A
C1665      C1666   1.407       .  A
C1665      C1672   1.520       .  S
C1666      C1667   1.409       .  A
C1666      H1671   1.082       .  S
C1667      C1668   1.424       .  A
C1668      C1669   1.520       .  S
C1669      F1673   1.384       .  S
C1669      F1674   1.383       .  S
C1669      F1675   1.383       .  S
C1672      F1676   1.382       .  S
C1672      F1677   1.384       .  S
C1672      F1678   1.384       .  S
C1679      C1680   1.408       .  A
C1679      C1684   1.409       .  A
C1679      H1686   1.084       .  S
C1680      C1681   1.420       .  A
C1681      C1682   1.406       .  A
C1681      C1688   1.519       .  S
C1682      C1683   1.402       .  A
C1682      H1687   1.084       .  S
C1683      C1684   1.418       .  A
C1684      C1685   1.520       .  S
C1685      F1689   1.385       .  S
C1685      F1690   1.384       .  S
C1685      F1691   1.382       .  S
C1688      F1692   1.382       .  S
C1688      F1693   1.383       .  S
C1688      F1694   1.385       .  S
C1695      C1696   1.406       .  A
C1695      C1700   1.413       .  A
C1695      H1702   1.082       .  S
C1696      C1697   1.423       .  A
C1697      C1698   1.404       .  A
C1697      C1704   1.523       .  S
C1698      C1699   1.407       .  A
C1698      H1703   1.081       .  S
C1699      C1700   1.429       .  A
C1700      C1701   1.523       .  S
C1701      F1705   1.385   1_545  S
C1701      F1706   1.383       .  S
C1701      F1707   1.383       .  S
C1704      F1708   1.383       .  S
C1704      F1709   1.384       .  S
C1704      F1710   1.384       .  S
