geometry optimzed in LAMMPS
_audit_creation_date              2020-12-01 
_audit_creation_method            'lammps2cif' 
_symmetry_space_group_name_H-M    'P1' 
_symmetry_Int_Tables_number       1 
_symmetry_cell_setting            triclinic 
loop_ 
_symmetry_equiv_pos_as_xyz 
  x,y,z 
_cell_length_a                    35.51812969 
_cell_length_b                    35.51814849967872 
_cell_length_c                    41.32784673607448 
_cell_angle_alpha                 90.06011088884655 
_cell_angle_beta                  89.94434088895741 
_cell_angle_gamma                 81.53683244217208 
loop_ 
_atom_site_label 
_atom_site_type_symbol 
_atom_site_fract_x 
_atom_site_fract_y 
_atom_site_fract_z 
_atom_site_charge 
C1          C  0.12234191  0.99059677  0.06829722     0.44700
N2          N  0.06382707  0.49035424  0.05667812     0.03600
C3          C  0.49089975  0.41861423  0.41790033    -0.04300
H4          H  0.07202719  0.02587753  0.39681658     0.09100
C5          C  0.47408199  0.11608267  0.46185167    -0.04600
Co6        Co  0.05466418  0.44517309  0.49686677     0.74200
N7          N  0.05833676  0.49554987  0.43953796    -0.23800
Co8        Co  0.49919383  0.00060627  0.44071602     0.74100
C9          C  0.99505756  0.11821430  0.43182496     0.44800
N10         N  0.47869351  0.07549224  0.03899093     0.03200
N11         N  0.49439953  0.05972005  0.44331068     0.03300
N12         N  0.02737448  0.38335979  0.45506856    -0.44700
H13         H  0.14279270  0.45482198  0.02349681     0.09100
N14         N  0.07954598  0.47466565  0.46102527     0.03600
N15         N  0.44008239  0.00537130  0.44331428     0.03300
C16         C  0.38160096  0.50468293  0.43183321     0.44900
N17         N  0.49962536  0.05425420  0.06043441    -0.23300
C18         C  0.03007489  0.37967008  0.03820768    -0.04200
N19         N  0.08654008  0.00206696  0.07874619    -0.44400
N20         N  0.41741456  0.49337089  0.42135824    -0.44600
C21         C  0.50926917  0.37747979  0.06830676     0.44700
N22         N  0.02517759  0.42027069  0.46103010     0.03600
N23         N  0.44557277  0.00016533  0.06043917    -0.23300
N24         N  0.08275617  0.47115119  0.03290952    -0.23800
N25         N  0.42432008  0.02108312  0.03899615     0.03200
H26         H  0.43198263  0.46949086  0.10299251     0.09100
H27         H  0.36104204  0.04046389  0.47661015     0.09200
N28         N  0.00428500  0.44146979  0.43954162    -0.23800
N29         N  0.47519789  0.07868370  0.46706630    -0.23400
N30         N  0.00950944  0.43600600  0.05668809     0.03600
C31         C  0.11944011  0.99390706  0.42856281     0.45000
C32         C  0.01320923  0.07706157  0.08199490    -0.04700
N33         N  0.42111459  0.02456738  0.46707059    -0.23400
H34         H  0.45927959  0.13875485  0.47660472     0.09100
N35         N  0.11645464  0.47248313  0.45506232    -0.44700
H36         H  0.03028347  0.06788530  0.10298885     0.09100
C37         C  0.38450709  0.50150354  0.07134461     0.44800
C38         C  0.12016172  0.46978660  0.03819835    -0.04200
Co39       Co  0.00470730  0.49512814  0.05926965     0.73800
N40         N  0.47668391  0.11240297  0.04490312    -0.44400
C41         C  0.50595755  0.38035246  0.42856689     0.45100
N42         N  0.49779823  0.41328218  0.07875459    -0.44400
Co43       Co  0.44918706  0.05060054  0.00312861     0.73900
C44         C  0.38371708  0.02566689  0.46185755    -0.04700
C45         C  0.08117265  0.00894832  0.41789688    -0.04300
N46         N  0.02870766  0.41707591  0.03291757    -0.23800
N47         N  0.00638535  0.08240180  0.42135270    -0.44500
H48         H  0.47396604  0.42775081  0.39681992     0.09100
C49         C  0.42279261  0.48656242  0.08200023    -0.04700
Cl50       Cl  0.00192552  0.99788457  0.99999538    -0.47700
C51         C  0.99823976  0.11533944  0.07133904     0.44900
H52         H  0.04503203  0.35703814  0.02350311     0.09100
N53         N  0.38741230  0.02306413  0.04490758    -0.44400
C54         C  0.00412454  0.24765532  0.16894361     0.82500
N55         N  0.00434967  0.28062703  0.15238698    -0.75800
C56         C  0.00391234  0.28047708  0.11953190     0.84900
N57         N  0.00331102  0.24738474  0.10325512    -0.75800
C58         C  0.00310851  0.21444187  0.11977770     0.85000
N59         N  0.00349553  0.21457555  0.15261509    -0.77500
C60         C  0.00366374  0.24718719  0.33108847     0.82500
N61         N  0.00285682  0.21438979  0.34776381    -0.75800
C62         C  0.00212153  0.21488889  0.38061633     0.84900
N63         N  0.00210344  0.24816018  0.39676745    -0.75800
C64         C  0.00287172  0.28093025  0.38012476     0.85000
N65         N  0.00365997  0.28044762  0.34729345    -0.77500
C66         C  0.25220277  0.49558062  0.16894422     0.82500
N67         N  0.21922506  0.49539362  0.15238626    -0.75800
C68         C  0.21937173  0.49584944  0.11953181     0.84900
N69         N  0.25246659  0.49643263  0.10325658    -0.75800
C70         C  0.28541566  0.49659749  0.11978065     0.85000
N71         N  0.28528532  0.49619234  0.15261782    -0.77500
C72         C  0.25263118  0.49608574  0.33108589     0.82500
N73         N  0.28542976  0.49687767  0.34776497    -0.75800
C74         C  0.28492491  0.49763634  0.38061681     0.84900
N75         N  0.25164661  0.49769309  0.39676369    -0.75800
C76         C  0.21887494  0.49694048  0.38011708     0.85000
N77         N  0.21936341  0.49612821  0.34728616    -0.77500
C78         C  0.25300724  0.49546582  0.29631287    -0.16300
C79         C  0.25286128  0.49516526  0.26711741     0.07800
C80         C  0.25243734  0.49507162  0.23291458     0.09700
C81         C  0.25215080  0.49520703  0.20371922    -0.16800
C82         C  0.00425873  0.24681892  0.29631447    -0.16300
C83         C  0.00454268  0.24697608  0.26711856     0.07800
C84         C  0.00462502  0.24741351  0.23291517     0.09700
C85         C  0.00448853  0.24770759  0.20371946    -0.17100
C86         C  0.00071172  0.18040621  0.39834776    -0.11000
C87         C  0.99867790  0.15186948  0.41360292    -0.12600
C88         C  0.00389985  0.34541320  0.41167562    -0.11000
C89         C  0.00308475  0.31603302  0.39726931    -0.12600
C90         C  0.00217245  0.17953567  0.10251126    -0.11000
C91         C  0.00079123  0.15026802  0.08808988    -0.12600
C92         C  0.00616655  0.34380266  0.08666721    -0.11000
C93         C  0.00466562  0.31514998  0.10191156    -0.12600
C94         C  0.34794726  0.50106003  0.41360810    -0.11000
C95         C  0.31940934  0.49903192  0.39835125    -0.12600
C96         C  0.18376598  0.49675946  0.39725755    -0.11000
C97         C  0.15438465  0.49595879  0.41166410    -0.12600
C98         C  0.34958600  0.49892560  0.08809547    -0.11000
C99         C  0.32032191  0.49753141  0.10251626    -0.12600
C100        C  0.18469119  0.49514052  0.10191067    -0.11000
C101        C  0.15603249  0.49367340  0.08666411    -0.12600
C102        C  0.12234202  0.99059667  0.56829715     0.44700
N103        N  0.06382707  0.49035421  0.55667810     0.03600
C104        C  0.49089970  0.41861423  0.91790040    -0.04300
H105        H  0.07202729  0.02587762  0.89681665     0.09100
C106        C  0.47408197  0.11608250  0.96185154    -0.04600
Co107      Co  0.05466428  0.44517303  0.99686679     0.74200
N108        N  0.05833681  0.49554979  0.93953793    -0.23800
Co109      Co  0.49919391  0.00060624  0.94071592     0.74100
C110        C  0.99505759  0.11821431  0.93182497     0.44800
N111        N  0.47869350  0.07549229  0.53899087     0.03200
N112        N  0.49439965  0.05972003  0.94331063     0.03300
N113        N  0.02737460  0.38335979  0.95506853    -0.44700
H114        H  0.14279247  0.45482201  0.52349699     0.09100
N115        N  0.07954609  0.47466561  0.96102522     0.03600
N116        N  0.44008238  0.00537137  0.94331425     0.03300
C117        C  0.38160098  0.50468290  0.93183323     0.44900
N118        N  0.49962544  0.05425423  0.56043434    -0.23300
C119        C  0.03007482  0.37967019  0.53820771    -0.04200
N120        N  0.08654021  0.00206681  0.57874623    -0.44400
N121        N  0.41741455  0.49337091  0.92135825    -0.44600
C122        C  0.50926917  0.37747983  0.56830677     0.44700
N123        N  0.02517759  0.42027069  0.96103016     0.03600
N124        N  0.44557281  0.00016529  0.56043910    -0.23300
N125        N  0.08275613  0.47115120  0.53290952    -0.23800
N126        N  0.42432006  0.02108313  0.53899615     0.03200
H127        H  0.43198231  0.46949099  0.60299210     0.09100
H128        H  0.36104243  0.04046374  0.97661005     0.09200
N129        N  0.00428496  0.44146977  0.93954169    -0.23800
N130        N  0.47519796  0.07868367  0.96706627    -0.23400
N131        N  0.00950947  0.43600603  0.55668812     0.03600
C132        C  0.11944015  0.99390716  0.92856287     0.45000
C133        C  0.01320910  0.07706167  0.58199470    -0.04700
N134        N  0.42111464  0.02456743  0.96707057    -0.23400
H135        H  0.45927904  0.13875536  0.97660503     0.09100
N136        N  0.11645475  0.47248310  0.95506217    -0.44700
H137        H  0.03028374  0.06788519  0.60298925     0.09100
C138        C  0.38450707  0.50150362  0.57134464     0.44800
C139        C  0.12016174  0.46978651  0.53819833    -0.04200
Co140      Co  0.00470727  0.49512808  0.55926969     0.73800
N141        N  0.47668388  0.11240299  0.54490303    -0.44400
C142        C  0.50595754  0.38035248  0.92856686     0.45100
N143        N  0.49779832  0.41328225  0.57875464    -0.44400
Co144      Co  0.44918701  0.05060057  0.50312862     0.73900
C145        C  0.38371701  0.02566705  0.96185764    -0.04700
C146        C  0.08117272  0.00894843  0.91789696    -0.04300
N147        N  0.02870766  0.41707593  0.53291755    -0.23800
N148        N  0.00638548  0.08240180  0.92135270    -0.44500
H149        H  0.47396576  0.42775091  0.89681976     0.09100
C150        C  0.42279258  0.48656230  0.58200031    -0.04700
Cl151      Cl  0.00192557  0.99788453  0.49999540    -0.47700
C152        C  0.99823986  0.11533952  0.57133888     0.44900
H153        H  0.04503212  0.35703782  0.52350281     0.09100
N154        N  0.38741229  0.02306411  0.54490761    -0.44400
C155        C  0.00412456  0.24765537  0.66894362     0.82500
N156        N  0.00434960  0.28062712  0.65238700    -0.75800
C157        C  0.00391221  0.28047718  0.61953192     0.84900
N158        N  0.00331090  0.24738485  0.60325511    -0.75800
C159        C  0.00310838  0.21444197  0.61977767     0.85000
N160        N  0.00349547  0.21457564  0.65261505    -0.77500
C161        C  0.00366369  0.24718712  0.83108851     0.82500
N162        N  0.00285696  0.21438967  0.84776382    -0.75800
C163        C  0.00212171  0.21488878  0.88061634     0.84900
N164        N  0.00210360  0.24816008  0.89676749    -0.75800
C165        C  0.00287173  0.28093018  0.88012480     0.85000
N166        N  0.00365986  0.28044754  0.84729350    -0.77500
C167        C  0.25220278  0.49558078  0.66894426     0.82500
N168        N  0.21922503  0.49539370  0.65238632    -0.75800
C169        C  0.21937173  0.49584940  0.61953187     0.84900
N170        N  0.25246652  0.49643270  0.60325662    -0.75800
C171        C  0.28541561  0.49659760  0.61978067     0.85000
N172        N  0.28528529  0.49619246  0.65261783    -0.77500
C173        C  0.25263123  0.49608578  0.83108590     0.82500
N174        N  0.28542981  0.49687762  0.84776498    -0.75800
C175        C  0.28492495  0.49763636  0.88061684     0.84900
N176        N  0.25164662  0.49769305  0.89676368    -0.75800
C177        C  0.21887497  0.49694055  0.88011705     0.85000
N178        N  0.21936343  0.49612837  0.84728613    -0.77500
C179        C  0.25300726  0.49546570  0.79631288    -0.16300
C180        C  0.25286120  0.49516509  0.76711743     0.07800
C181        C  0.25243730  0.49507152  0.73291461     0.09700
C182        C  0.25215086  0.49520712  0.70371926    -0.16800
C183        C  0.00425867  0.24681896  0.79631450    -0.16300
C184        C  0.00454279  0.24697622  0.76711859     0.07800
C185        C  0.00462513  0.24741359  0.73291520     0.09700
C186        C  0.00448853  0.24770756  0.70371947    -0.17100
C187        C  0.00071176  0.18040616  0.89834777    -0.11000
C188        C  0.99867799  0.15186949  0.91360298    -0.12600
C189        C  0.00389985  0.34541323  0.91167559    -0.11000
C190        C  0.00308480  0.31603300  0.89726933    -0.12600
C191        C  0.00217232  0.17953573  0.60251125    -0.11000
C192        C  0.00079113  0.15026805  0.58808988    -0.12600
C193        C  0.00616647  0.34380274  0.58666723    -0.11000
C194        C  0.00466551  0.31515005  0.60191157    -0.12600
C195        C  0.34794730  0.50106013  0.91360811    -0.11000
C196        C  0.31940933  0.49903204  0.89835130    -0.12600
C197        C  0.18376601  0.49675958  0.89725750    -0.11000
C198        C  0.15438466  0.49595893  0.91166400    -0.12600
C199        C  0.34958594  0.49892552  0.58809544    -0.11000
C200        C  0.32032185  0.49753131  0.60251626    -0.12600
C201        C  0.18469119  0.49514037  0.60191073    -0.11000
C202        C  0.15603254  0.49367330  0.58666411    -0.12600
C203        C  0.12235447  0.49059797  0.06829486     0.44700
N204        N  0.06381466  0.99035549  0.05667874     0.03600
C205        C  0.49089047  0.91861650  0.41789907    -0.04300
H206        H  0.07203757  0.52587268  0.39681502     0.09100
C207        C  0.47409205  0.61608023  0.46185132    -0.04600
Co208      Co  0.05465323  0.94517558  0.49686647     0.74200
N209        N  0.05832629  0.99555310  0.43953825    -0.23800
Co210      Co  0.49920434  0.50060371  0.44071631     0.74100
C211        C  0.99506733  0.61821197  0.43182445     0.44800
N212        N  0.47870566  0.57549071  0.03899044     0.03200
N213        N  0.49441019  0.55971762  0.44331050     0.03300
N214        N  0.02736524  0.88336235  0.45506743    -0.44700
H215        H  0.14278085  0.95482169  0.02349880     0.09100
N216        N  0.07953546  0.97466901  0.46102560     0.03600
N217        N  0.44009286  0.50536893  0.44331510     0.03300
C218        C  0.38159067  0.00468641  0.43183150     0.44900
N219        N  0.49963798  0.55425305  0.06043388    -0.23300
C220        C  0.03006437  0.87967177  0.03820648    -0.04200
N221        N  0.08655279  0.50206752  0.07874441    -0.44400
N222        N  0.41740432  0.99337400  0.42135685    -0.44600
C223        C  0.50925851  0.87748079  0.06830526     0.44700
N224        N  0.02516774  0.92027322  0.46102918     0.03600
N225        N  0.44558525  0.50016443  0.06044042    -0.23300
N226        N  0.08274416  0.97115303  0.03291002    -0.23800
N227        N  0.42433228  0.52108162  0.03899717     0.03200
H228        H  0.43196964  0.96948951  0.10298961     0.09100
H229        H  0.36105236  0.54046074  0.47661230     0.09200
N230        N  0.00427515  0.94147226  0.43954064    -0.23800
N231        N  0.47520871  0.57868123  0.46706614    -0.23400
N232        N  0.00949715  0.93600725  0.05668674     0.03600
C233        C  0.11945059  0.49390166  0.42856138     0.45000
C234        C  0.01322155  0.57706077  0.08199416    -0.04700
N235        N  0.42112531  0.52456499  0.46707154    -0.23400
H236        H  0.45928957  0.63875218  0.47660428     0.09100
N237        N  0.11644423  0.97248769  0.45506329    -0.44700
H238        H  0.03029575  0.56788476  0.10298842     0.09100
C239        C  0.38449453  0.00150303  0.07134211     0.44800
C240        C  0.12014955  0.96978698  0.03819997    -0.04200
Co241      Co  0.00469481  0.99512928  0.05926926     0.73800
N242        N  0.47669550  0.61240149  0.04490250    -0.44400
C243        C  0.50594884  0.88035473  0.42856549     0.45100
N244        N  0.49778660  0.91328297  0.07875314    -0.44400
Co245      Co  0.44919848  0.55059851  0.00312895     0.73900
C246        C  0.38372779  0.52566380  0.46185902    -0.04700
C247        C  0.08118318  0.50894377  0.41789595    -0.04300
N248        N  0.02869623  0.91707762  0.03291641    -0.23800
N249        N  0.00639532  0.58239945  0.42135214    -0.44500
H250        H  0.47395689  0.92775301  0.39681842     0.09100
C251        C  0.42277993  0.98656198  0.08199803    -0.04700
Cl252      Cl  0.00193698  0.49788253  0.99999571    -0.47700
C253        C  0.99825161  0.61533842  0.07133820     0.44900
H254        H  0.04502293  0.85703972  0.02350193     0.09100
N255        N  0.38742461  0.52306337  0.04490930    -0.44400
C256        C  0.00412538  0.74765581  0.16894354     0.82500
N257        N  0.00434732  0.78062792  0.15238679    -0.75800
C258        C  0.00390993  0.78047771  0.11953172     0.84900
N259        N  0.00331189  0.74738477  0.10325506    -0.75800
C260        C  0.00311260  0.71444154  0.11977777     0.85000
N261        N  0.00349955  0.71457544  0.15261514    -0.77500
C262        C  0.00366364  0.74718701  0.33108826     0.82500
N263        N  0.00285979  0.71438915  0.34776364    -0.75800
C264        C  0.00212456  0.71488826  0.38061615     0.84900
N265        N  0.00210350  0.74816009  0.39676722    -0.75800
C266        C  0.00286868  0.78093066  0.38012442     0.85000
N267        N  0.00365690  0.78044792  0.34729313    -0.77500
C268        C  0.25219431  0.99557409  0.16894413     0.82500
N269        N  0.21921584  0.99538687  0.15238736    -0.75800
C270        C  0.21936087  0.99584319  0.11953295     0.84900
N271        N  0.25245476  0.99642725  0.10325652    -0.75800
C272        C  0.28540467  0.99659230  0.11977937     0.85000
N273        N  0.28527596  0.99618668  0.15261658    -0.77500
C274        C  0.25261897  0.99609103  0.33108576     0.82500
N275        N  0.28541790  0.99688287  0.34776428    -0.75800
C276        C  0.28491362  0.99764280  0.38061607     0.84900
N277        N  0.25163557  0.99770052  0.39676353    -0.75800
C278        C  0.21886352  0.99694787  0.38011752     0.85000
N279        N  0.21935138  0.99613449  0.34728657    -0.77500
C280        C  0.25299491  0.99546863  0.29631275    -0.16300
C281        C  0.25285042  0.99516525  0.26711730     0.07800
C282        C  0.25242890  0.99506826  0.23291448     0.09700
C283        C  0.25214346  0.99520160  0.20371912    -0.16800
C284        C  0.00425884  0.74681874  0.29631430    -0.16300
C285        C  0.00454302  0.74697629  0.26711842     0.07800
C286        C  0.00462555  0.74741407  0.23291507     0.09700
C287        C  0.00448916  0.74770824  0.20371936    -0.17100
C288        C  0.00071798  0.68040490  0.39834750    -0.11000
C289        C  0.99868640  0.65186745  0.41360234    -0.12600
C290        C  0.00389188  0.84541515  0.41167437    -0.11000
C291        C  0.00307870  0.81603418  0.39726867    -0.12600
C292        C  0.00217977  0.67953477  0.10251147    -0.11000
C293        C  0.00080097  0.65026690  0.08808978    -0.12600
C294        C  0.00615831  0.84380366  0.08666635    -0.11000
C295        C  0.00465992  0.81515091  0.10191121    -0.12600
C296        C  0.34793705  0.00106456  0.41360613    -0.11000
C297        C  0.31939858  0.99903757  0.39834980    -0.12600
C298        C  0.18375502  0.99676681  0.39725873    -0.11000
C299        C  0.15437415  0.99596534  0.41166578    -0.12600
C300        C  0.34957334  0.99892359  0.08809238    -0.11000
C301        C  0.32030984  0.99752777  0.10251369    -0.12600
C302        C  0.18467924  0.99513542  0.10191315    -0.11000
C303        C  0.15601980  0.99367006  0.08666722    -0.12600
C304        C  0.12235449  0.49059802  0.56829480     0.44700
N305        N  0.06381470  0.99035536  0.55667882     0.03600
C306        C  0.49089066  0.91861636  0.91789911    -0.04300
H307        H  0.07203747  0.52587288  0.89681503     0.09100
C308        C  0.47409214  0.61608025  0.96185134    -0.04600
Co309      Co  0.05465329  0.94517553  0.99686647     0.74200
N310        N  0.05832635  0.99555312  0.93953827    -0.23800
Co311      Co  0.49920431  0.50060367  0.94071632     0.74100
C312        C  0.99506720  0.61821205  0.93182448     0.44800
N313        N  0.47870572  0.57549062  0.53899047     0.03200
N314        N  0.49441025  0.55971765  0.94331051     0.03300
N315        N  0.02736537  0.88336230  0.95506743    -0.44700
H316        H  0.14278083  0.95482184  0.52349845     0.09100
N317        N  0.07953554  0.97466902  0.96102562     0.03600
N318        N  0.44009285  0.50536887  0.94331518     0.03300
C319        C  0.38159062  0.00468655  0.93183155     0.44900
N320        N  0.49963804  0.55425296  0.56043395    -0.23300
C321        C  0.03006454  0.87967181  0.53820651    -0.04200
N322        N  0.08655283  0.50206764  0.57874434    -0.44400
N323        N  0.41740423  0.99337411  0.92135685    -0.44600
C324        C  0.50925845  0.87748079  0.56830526     0.44700
N325        N  0.02516775  0.92027322  0.96102916     0.03600
N326        N  0.44558524  0.50016438  0.56044045    -0.23300
N327        N  0.08274415  0.97115302  0.53291002    -0.23800
N328        N  0.42433236  0.52108156  0.53899722     0.03200
H329        H  0.43196958  0.96948996  0.60298927     0.09100
H330        H  0.36105274  0.54046061  0.97661194     0.09200
N331        N  0.00427512  0.94147216  0.93954061    -0.23800
N332        N  0.47520869  0.57868127  0.96706611    -0.23400
N333        N  0.00949709  0.93600725  0.55668677     0.03600
C334        C  0.11945063  0.49390177  0.92856131     0.45000
C335        C  0.01322164  0.57706074  0.58199414    -0.04700
N336        N  0.42112530  0.52456494  0.96707158    -0.23400
H337        H  0.45928957  0.63875231  0.97660438     0.09100
N338        N  0.11644430  0.97248768  0.95506329    -0.44700
H339        H  0.03029596  0.56788480  0.60298849     0.09100
C340        C  0.38449453  0.00150307  0.57134217     0.44800
C341        C  0.12014954  0.96978703  0.53819984    -0.04200
Co342      Co  0.00469476  0.99512923  0.55926928     0.73800
N343        N  0.47669558  0.61240139  0.54490249    -0.44400
C344        C  0.50594877  0.88035464  0.92856556     0.45100
N345        N  0.49778652  0.91328296  0.57875318    -0.44400
Co346      Co  0.44919859  0.55059842  0.50312897     0.73900
C347        C  0.38372769  0.52566386  0.96185907    -0.04700
C348        C  0.08118317  0.50894384  0.91789595    -0.04300
N349        N  0.02869624  0.91707770  0.53291647    -0.23800
N350        N  0.00639522  0.58239955  0.92135213    -0.44500
H351        H  0.47395659  0.92775302  0.89681794     0.09100
C352        C  0.42278002  0.98656197  0.58199811    -0.04700
Cl353      Cl  0.00193683  0.49788244  0.49999569    -0.47700
C354        C  0.99825170  0.61533836  0.57133816     0.44900
H355        H  0.04502295  0.85704006  0.52350205     0.09100
N356        N  0.38742464  0.52306346  0.54490936    -0.44400
C357        C  0.00412531  0.74765580  0.66894358     0.82500
N358        N  0.00434726  0.78062791  0.65238682    -0.75800
C359        C  0.00390994  0.78047767  0.61953175     0.84900
N360        N  0.00331183  0.74738475  0.60325511    -0.75800
C361        C  0.00311250  0.71444151  0.61977781     0.85000
N362        N  0.00349949  0.71457543  0.65261519    -0.77500
C363        C  0.00366360  0.74718693  0.83108826     0.82500
N364        N  0.00285996  0.71438905  0.84776364    -0.75800
C365        C  0.00212473  0.71488821  0.88061617     0.84900
N366        N  0.00210345  0.74816008  0.89676721    -0.75800
C367        C  0.00286855  0.78093064  0.88012440     0.85000
N368        N  0.00365678  0.78044786  0.84729310    -0.77500
C369        C  0.25219425  0.99557405  0.66894410     0.82500
N370        N  0.21921581  0.99538688  0.65238732    -0.75800
C371        C  0.21936086  0.99584319  0.61953291     0.84900
N372        N  0.25245476  0.99642728  0.60325650    -0.75800
C373        C  0.28540462  0.99659231  0.61977936     0.85000
N374        N  0.28527592  0.99618670  0.65261658    -0.77500
C375        C  0.25261901  0.99609093  0.83108577     0.82500
N376        N  0.28541792  0.99688269  0.84776431    -0.75800
C377        C  0.28491363  0.99764269  0.88061611     0.84900
N378        N  0.25163553  0.99770060  0.89676355    -0.75800
C379        C  0.21886348  0.99694802  0.88011752     0.85000
N380        N  0.21935136  0.99613458  0.84728657    -0.77500
C381        C  0.25299501  0.99546849  0.79631274    -0.16300
C382        C  0.25285040  0.99516510  0.76711729     0.07800
C383        C  0.25242881  0.99506811  0.73291445     0.09700
C384        C  0.25214338  0.99520147  0.70371909    -0.16800
C385        C  0.00425880  0.74681869  0.79631431    -0.16300
C386        C  0.00454315  0.74697624  0.76711843     0.07800
C387        C  0.00462573  0.74741415  0.73291509     0.09700
C388        C  0.00448927  0.74770829  0.70371939    -0.17100
C389        C  0.00071810  0.68040492  0.89834755    -0.11000
C390        C  0.99868632  0.65186754  0.91360241    -0.12600
C391        C  0.00389204  0.84541504  0.91167441    -0.11000
C392        C  0.00307863  0.81603415  0.89726864    -0.12600
C393        C  0.00217967  0.67953472  0.60251151    -0.11000
C394        C  0.00080090  0.65026684  0.58808981    -0.12600
C395        C  0.00615827  0.84380361  0.58666632    -0.11000
C396        C  0.00465986  0.81515088  0.60191122    -0.12600
C397        C  0.34793700  0.00106466  0.91360619    -0.11000
C398        C  0.31939860  0.99903747  0.89834981    -0.12600
C399        C  0.18375497  0.99676696  0.89725872    -0.11000
C400        C  0.15437413  0.99596546  0.91166580    -0.12600
C401        C  0.34957330  0.99892354  0.58809240    -0.11000
C402        C  0.32030977  0.99752782  0.60251370    -0.12600
C403        C  0.18467929  0.99513553  0.60191309    -0.11000
C404        C  0.15601994  0.99367015  0.58666705    -0.12600
C405        C  0.62234200  0.99059677  0.06829720     0.44700
N406        N  0.56382708  0.49035425  0.05667810     0.03600
C407        C  0.99089963  0.41861422  0.41790036    -0.04300
H408        H  0.57202724  0.02587753  0.39681660     0.09100
C409        C  0.97408191  0.11608269  0.46185169    -0.04600
Co410      Co  0.55466425  0.44517307  0.49686678     0.74200
N411        N  0.55833683  0.49554987  0.43953799    -0.23800
Co412      Co  0.99919389  0.00060627  0.44071601     0.74100
C413        C  0.49505770  0.11821430  0.43182499     0.44800
N414        N  0.97869349  0.07549223  0.03899095     0.03200
N415        N  0.99439961  0.05972006  0.44331070     0.03300
N416        N  0.52737456  0.38335978  0.45506855    -0.44700
H417        H  0.64279252  0.45482209  0.02349688     0.09100
N418        N  0.57954607  0.47466565  0.46102528     0.03600
N419        N  0.94008241  0.00537128  0.44331425     0.03300
C420        C  0.88160096  0.50468292  0.43183318     0.44900
N421        N  0.99962543  0.05425420  0.06043439    -0.23300
C422        C  0.53007486  0.37967007  0.03820768    -0.04200
N423        N  0.58654017  0.00206697  0.07874619    -0.44400
N424        N  0.91741454  0.49337089  0.42135823    -0.44600
C425        C  0.00926916  0.37747978  0.06830675     0.44700
N426        N  0.52517764  0.42027069  0.46103013     0.03600
N427        N  0.94557278  0.00016533  0.06043917    -0.23300
N428        N  0.58275614  0.47115120  0.03290953    -0.23800
N429        N  0.92432004  0.02108311  0.03899615     0.03200
H430        H  0.93198270  0.46949087  0.10299250     0.09100
H431        H  0.86104180  0.04046417  0.47661044     0.09200
N432        N  0.50428510  0.44146979  0.43954163    -0.23800
N433        N  0.97519799  0.07868368  0.46706634    -0.23400
N434        N  0.50950952  0.43600599  0.05668811     0.03600
C435        C  0.61944013  0.99390708  0.42856283     0.45000
C436        C  0.51320915  0.07706155  0.08199493    -0.04700
N437        N  0.92111464  0.02456738  0.46707058    -0.23400
H438        H  0.95927958  0.13875461  0.47660459     0.09100
N439        N  0.61645473  0.47248315  0.45506231    -0.44700
H440        H  0.53028336  0.06788527  0.10298891     0.09100
C441        C  0.88450715  0.50150353  0.07134461     0.44800
C442        C  0.62016172  0.46978658  0.03819832    -0.04200
Co443      Co  0.50470732  0.49512814  0.05926966     0.73800
N444        N  0.97668393  0.11240296  0.04490311    -0.44400
C445        C  0.00595745  0.38035245  0.42856691     0.45100
N446        N  0.99779826  0.41328217  0.07875461    -0.44400
Co447      Co  0.94918702  0.05060053  0.00312862     0.73900
C448        C  0.88371719  0.02566688  0.46185753    -0.04700
C449        C  0.58117268  0.00894831  0.41789689    -0.04300
N450        N  0.52870769  0.41707589  0.03291759    -0.23800
N451        N  0.50638543  0.08240177  0.42135273    -0.44500
H452        H  0.97396587  0.42775081  0.39681993     0.09100
C453        C  0.92279268  0.48656242  0.08200023    -0.04700
Cl454      Cl  0.50192544  0.99788454  0.99999538    -0.47700
C455        C  0.49823981  0.11533943  0.07133902     0.44900
H456        H  0.54503188  0.35703808  0.02350302     0.09100
N457        N  0.88741228  0.02306413  0.04490760    -0.44400
C458        C  0.50412460  0.24765531  0.16894361     0.82500
N459        N  0.50434958  0.28062704  0.15238697    -0.75800
C460        C  0.50391224  0.28047709  0.11953190     0.84900
N461        N  0.50331088  0.24738476  0.10325512    -0.75800
C462        C  0.50310841  0.21444188  0.11977770     0.85000
N463        N  0.50349564  0.21457553  0.15261509    -0.77500
C464        C  0.50366369  0.24718720  0.33108847     0.82500
N465        N  0.50285690  0.21438979  0.34776381    -0.75800
C466        C  0.50212168  0.21488888  0.38061633     0.84900
N467        N  0.50210359  0.24816018  0.39676745    -0.75800
C468        C  0.50287188  0.28093024  0.38012476     0.85000
N469        N  0.50366005  0.28044762  0.34729344    -0.77500
C470        C  0.75220280  0.49558066  0.16894422     0.82500
N471        N  0.71922503  0.49539363  0.15238629    -0.75800
C472        C  0.71937174  0.49584943  0.11953183     0.84900
N473        N  0.75246653  0.49643263  0.10325658    -0.75800
C474        C  0.78541566  0.49659749  0.11978063     0.85000
N475        N  0.78528530  0.49619235  0.15261779    -0.77500
C476        C  0.75263116  0.49608589  0.33108589     0.82500
N477        N  0.78542975  0.49687772  0.34776496    -0.75800
C478        C  0.78492492  0.49763634  0.38061682     0.84900
N479        N  0.75164660  0.49769309  0.39676368    -0.75800
C480        C  0.71887495  0.49694047  0.38011707     0.85000
N481        N  0.71936340  0.49612827  0.34728615    -0.77500
C482        C  0.75300717  0.49546586  0.29631287    -0.16300
C483        C  0.75286120  0.49516525  0.26711741     0.07800
C484        C  0.75243743  0.49507168  0.23291458     0.09700
C485        C  0.75215087  0.49520722  0.20371922    -0.16800
C486        C  0.50425865  0.24681893  0.29631447    -0.16300
C487        C  0.50454277  0.24697608  0.26711856     0.07800
C488        C  0.50462511  0.24741351  0.23291517     0.09700
C489        C  0.50448850  0.24770759  0.20371946    -0.17100
C490        C  0.50071187  0.18040620  0.39834776    -0.11000
C491        C  0.49867805  0.15186947  0.41360293    -0.12600
C492        C  0.50389983  0.34541321  0.41167564    -0.11000
C493        C  0.50308484  0.31603302  0.39726931    -0.12600
C494        C  0.50217238  0.17953567  0.10251127    -0.11000
C495        C  0.50079130  0.15026801  0.08808987    -0.12600
C496        C  0.50616650  0.34380266  0.08666720    -0.11000
C497        C  0.50466565  0.31514997  0.10191156    -0.12600
C498        C  0.84794728  0.50106002  0.41360808    -0.11000
C499        C  0.81940932  0.49903191  0.39835128    -0.12600
C500        C  0.68376600  0.49675946  0.39725755    -0.11000
C501        C  0.65438468  0.49595882  0.41166410    -0.12600
C502        C  0.84958604  0.49892561  0.08809547    -0.11000
C503        C  0.82032189  0.49753142  0.10251624    -0.12600
C504        C  0.68469116  0.49514052  0.10191068    -0.11000
C505        C  0.65603252  0.49367340  0.08666408    -0.12600
C506        C  0.62234194  0.99059669  0.56829718     0.44700
N507        N  0.56382711  0.49035422  0.55667811     0.03600
C508        C  0.99089976  0.41861421  0.91790038    -0.04300
H509        H  0.57202719  0.02587762  0.89681664     0.09100
C510        C  0.97408201  0.11608247  0.96185152    -0.04600
Co511      Co  0.55466422  0.44517304  0.99686679     0.74200
N512        N  0.55833679  0.49554981  0.93953791    -0.23800
Co513      Co  0.99919387  0.00060624  0.94071592     0.74100
C514        C  0.49505760  0.11821432  0.93182497     0.44800
N515        N  0.97869355  0.07549231  0.53899081     0.03200
N516        N  0.99439958  0.05972003  0.94331062     0.03300
N517        N  0.52737452  0.38335977  0.95506855    -0.44700
H518        H  0.64279267  0.45482189  0.52349692     0.09100
N519        N  0.57954603  0.47466561  0.96102522     0.03600
N520        N  0.94008237  0.00537136  0.94331425     0.03300
C521        C  0.88160096  0.50468289  0.93183325     0.44900
N522        N  0.99962540  0.05425422  0.56043436    -0.23300
C523        C  0.53007469  0.37967025  0.53820771    -0.04200
N524        N  0.58654014  0.00206680  0.57874623    -0.44400
N525        N  0.91741453  0.49337092  0.92135825    -0.44600
C526        C  0.00926923  0.37747983  0.56830679     0.44700
N527        N  0.52517762  0.42027068  0.96103013     0.03600
N528        N  0.94557275  0.00016528  0.56043909    -0.23300
N529        N  0.58275620  0.47115118  0.53290951    -0.23800
N530        N  0.92432010  0.02108313  0.53899615     0.03200
H531        H  0.93198243  0.46949108  0.60299200     0.09100
H532        H  0.86104204  0.04046402  0.97661032     0.09200
N533        N  0.50428503  0.44146977  0.93954165    -0.23800
N534        N  0.97519788  0.07868369  0.96706625    -0.23400
N535        N  0.50950944  0.43600604  0.55668812     0.03600
C536        C  0.61944010  0.99390715  0.92856286     0.45000
C537        C  0.51320920  0.07706166  0.58199482    -0.04700
N538        N  0.92111461  0.02456742  0.96707057    -0.23400
H539        H  0.95927900  0.13875562  0.97660520     0.09100
N540        N  0.61645468  0.47248307  0.95506220    -0.44700
H541        H  0.53028340  0.06788545  0.60298879     0.09100
C542        C  0.88450713  0.50150361  0.57134467     0.44800
C543        C  0.62016176  0.46978652  0.53819836    -0.04200
Co544      Co  0.50470732  0.49512808  0.55926968     0.73800
N545        N  0.97668397  0.11240300  0.54490296    -0.44400
C546        C  0.00595764  0.38035249  0.92856682     0.45100
N547        N  0.99779827  0.41328224  0.57875460    -0.44400
Co548      Co  0.94918710  0.05060056  0.50312861     0.73900
C549        C  0.88371708  0.02566700  0.96185759    -0.04700
C550        C  0.58117266  0.00894843  0.91789694    -0.04300
N551        N  0.52870761  0.41707593  0.53291752    -0.23800
N552        N  0.50638544  0.08240182  0.92135267    -0.44500
H553        H  0.97396587  0.42775088  0.89681964     0.09100
C554        C  0.92279266  0.48656229  0.58200033    -0.04700
Cl555      Cl  0.50192549  0.99788452  0.49999540    -0.47700
C556        C  0.49823977  0.11533952  0.57133894     0.44900
H557        H  0.54503219  0.35703762  0.52350270     0.09100
N558        N  0.88741227  0.02306415  0.54490757    -0.44400
C559        C  0.50412457  0.24765538  0.66894362     0.82500
N560        N  0.50434964  0.28062713  0.65238700    -0.75800
C561        C  0.50391221  0.28047719  0.61953192     0.84900
N562        N  0.50331099  0.24738485  0.60325511    -0.75800
C563        C  0.50310853  0.21444196  0.61977767     0.85000
N564        N  0.50349556  0.21457564  0.65261505    -0.77500
C565        C  0.50366380  0.24718711  0.83108851     0.82500
N566        N  0.50285688  0.21438968  0.84776382    -0.75800
C567        C  0.50212160  0.21488880  0.88061634     0.84900
N568        N  0.50210351  0.24816009  0.89676749    -0.75800
C569        C  0.50287178  0.28093017  0.88012481     0.85000
N570        N  0.50366003  0.28044751  0.84729351    -0.77500
C571        C  0.75220279  0.49558078  0.66894426     0.82500
N572        N  0.71922509  0.49539370  0.65238630    -0.75800
C573        C  0.71937178  0.49584940  0.61953185     0.84900
N574        N  0.75246662  0.49643270  0.60325662    -0.75800
C575        C  0.78541568  0.49659760  0.61978068     0.85000
N576        N  0.78528535  0.49619246  0.65261785    -0.77500
C577        C  0.75263115  0.49608578  0.83108590     0.82500
N578        N  0.78542974  0.49687762  0.84776498    -0.75800
C579        C  0.78492488  0.49763636  0.88061683     0.84900
N580        N  0.75164659  0.49769305  0.89676368    -0.75800
C581        C  0.71887490  0.49694056  0.88011705     0.85000
N582        N  0.71936336  0.49612838  0.84728613    -0.77500
C583        C  0.75300725  0.49546570  0.79631288    -0.16300
C584        C  0.75286118  0.49516509  0.76711743     0.07800
C585        C  0.75243734  0.49507152  0.73291461     0.09700
C586        C  0.75215083  0.49520712  0.70371925    -0.16800
C587        C  0.50425875  0.24681896  0.79631450    -0.16300
C588        C  0.50454270  0.24697622  0.76711859     0.07800
C589        C  0.50462505  0.24741358  0.73291520     0.09700
C590        C  0.50448858  0.24770756  0.70371947    -0.17100
C591        C  0.50071178  0.18040616  0.89834777    -0.11000
C592        C  0.49867793  0.15186949  0.91360297    -0.12600
C593        C  0.50389987  0.34541324  0.91167558    -0.11000
C594        C  0.50308477  0.31603301  0.89726933    -0.12600
C595        C  0.50217248  0.17953572  0.60251124    -0.11000
C596        C  0.50079122  0.15026806  0.58808986    -0.12600
C597        C  0.50616658  0.34380273  0.58666725    -0.11000
C598        C  0.50466563  0.31515004  0.60191158    -0.12600
C599        C  0.84794726  0.50106013  0.91360811    -0.11000
C600        C  0.81940932  0.49903204  0.89835127    -0.12600
C601        C  0.68376595  0.49675958  0.89725750    -0.11000
C602        C  0.65438461  0.49595891  0.91166401    -0.12600
C603        C  0.84958605  0.49892549  0.58809548    -0.11000
C604        C  0.82032197  0.49753131  0.60251629    -0.12600
C605        C  0.68469125  0.49514037  0.60191071    -0.11000
C606        C  0.65603253  0.49367330  0.58666414    -0.12600
C607        C  0.62235447  0.49059796  0.06829485     0.44700
N608        N  0.56381470  0.99035551  0.05667874     0.03600
C609        C  0.99089058  0.91861651  0.41789910    -0.04300
H610        H  0.57203749  0.52587267  0.39681499     0.09100
C611        C  0.97409214  0.61608019  0.46185128    -0.04600
Co612      Co  0.55465326  0.94517558  0.49686646     0.74200
N613        N  0.55832631  0.99555308  0.43953825    -0.23800
Co614      Co  0.99920427  0.50060371  0.44071630     0.74100
C615        C  0.49506718  0.61821198  0.43182442     0.44800
N616        N  0.97870568  0.57549072  0.03899043     0.03200
N617        N  0.99441022  0.55971761  0.44331050     0.03300
N618        N  0.52736533  0.88336237  0.45506739    -0.44700
H619        H  0.64278076  0.95482175  0.02349882     0.09100
N620        N  0.57953552  0.97466900  0.46102561     0.03600
N621        N  0.94009281  0.50536896  0.44331512     0.03300
C622        C  0.88159063  0.00468642  0.43183154     0.44900
N623        N  0.99963798  0.55425304  0.06043389    -0.23300
C624        C  0.53006450  0.87967172  0.03820646    -0.04200
N625        N  0.58655282  0.50206753  0.07874441    -0.44400
N626        N  0.91740428  0.99337399  0.42135686    -0.44600
C627        C  0.00925839  0.87748079  0.06830524     0.44700
N628        N  0.52516771  0.92027325  0.46102918     0.03600
N629        N  0.94558530  0.50016443  0.06044042    -0.23300
N630        N  0.58274417  0.97115304  0.03291003    -0.23800
N631        N  0.92433235  0.52108162  0.03899717     0.03200
H632        H  0.93196968  0.96948951  0.10298965     0.09100
H633        H  0.86105263  0.54046048  0.47661202     0.09200
N634        N  0.50427504  0.94147225  0.43954069    -0.23800
N635        N  0.97520867  0.57868125  0.46706611    -0.23400
N636        N  0.50949724  0.93600724  0.05668675     0.03600
C637        C  0.61945063  0.49390166  0.42856135     0.45000
C638        C  0.51322163  0.57706077  0.08199413    -0.04700
N639        N  0.92112525  0.52456498  0.46707154    -0.23400
H640        H  0.95928952  0.63875242  0.47660439     0.09100
N641        N  0.61644428  0.97248770  0.45506330    -0.44700
H642        H  0.53029584  0.56788479  0.10298829     0.09100
C643        C  0.88449449  0.00150302  0.07134212     0.44800
C644        C  0.62014960  0.96978697  0.03819994    -0.04200
Co645      Co  0.50469479  0.99512928  0.05926927     0.73800
N646        N  0.97669555  0.61240150  0.04490248    -0.44400
C647        C  0.00594872  0.88035474  0.42856552     0.45100
N648        N  0.99778649  0.91328298  0.07875313    -0.44400
Co649      Co  0.94919855  0.55059850  0.00312896     0.73900
C650        C  0.88372765  0.52566383  0.46185905    -0.04700
C651        C  0.58118320  0.50894375  0.41789595    -0.04300
N652        N  0.52869630  0.91707762  0.03291642    -0.23800
N653        N  0.50639520  0.58239948  0.42135210    -0.44500
H654        H  0.97395672  0.92775320  0.39681816     0.09100
C655        C  0.92277993  0.98656199  0.08199802    -0.04700
Cl656      Cl  0.50193688  0.49788253  0.99999571    -0.47700
C657        C  0.49825165  0.61533842  0.07133817     0.44900
H658        H  0.54502286  0.85703990  0.02350202     0.09100
N659        N  0.88742470  0.52306338  0.04490930    -0.44400
C660        C  0.50412541  0.74765580  0.16894354     0.82500
N661        N  0.50434730  0.78062792  0.15238679    -0.75800
C662        C  0.50390992  0.78047771  0.11953172     0.84900
N663        N  0.50331182  0.74738477  0.10325507    -0.75800
C664        C  0.50311249  0.71444156  0.11977777     0.85000
N665        N  0.50349949  0.71457544  0.15261515    -0.77500
C666        C  0.50366355  0.74718702  0.33108826     0.82500
N667        N  0.50285990  0.71438913  0.34776364    -0.75800
C668        C  0.50212468  0.71488824  0.38061615     0.84900
N669        N  0.50210341  0.74816010  0.39676723    -0.75800
C670        C  0.50286852  0.78093068  0.38012442     0.85000
N671        N  0.50365674  0.78044794  0.34729313    -0.77500
C672        C  0.75219431  0.99557409  0.16894413     0.82500
N673        N  0.71921587  0.99538687  0.15238736    -0.75800
C674        C  0.71936089  0.99584319  0.11953295     0.84900
N675        N  0.75245477  0.99642726  0.10325653    -0.75800
C676        C  0.78540465  0.99659230  0.11977937     0.85000
N677        N  0.78527597  0.99618668  0.15261658    -0.77500
C678        C  0.75261896  0.99609103  0.33108576     0.82500
N679        N  0.78541786  0.99688287  0.34776429    -0.75800
C680        C  0.78491358  0.99764280  0.38061608     0.84900
N681        N  0.75163550  0.99770052  0.39676353    -0.75800
C682        C  0.71886347  0.99694787  0.38011749     0.85000
N683        N  0.71935134  0.99613449  0.34728655    -0.77500
C684        C  0.75299496  0.99546863  0.29631276    -0.16300
C685        C  0.75285034  0.99516525  0.26711731     0.07800
C686        C  0.75242875  0.99506826  0.23291448     0.09700
C687        C  0.75214338  0.99520160  0.20371912    -0.16800
C688        C  0.50425876  0.74681875  0.29631430    -0.16300
C689        C  0.50454311  0.74697629  0.26711841     0.07800
C690        C  0.50462571  0.74741407  0.23291507     0.09700
C691        C  0.50448929  0.74770823  0.20371936    -0.17100
C692        C  0.50071808  0.68040488  0.39834750    -0.11000
C693        C  0.49868631  0.65186747  0.41360234    -0.12600
C694        C  0.50389198  0.84541513  0.41167436    -0.11000
C695        C  0.50307861  0.81603419  0.39726868    -0.12600
C696        C  0.50217979  0.67953476  0.10251147    -0.11000
C697        C  0.50080093  0.65026690  0.08808979    -0.12600
C698        C  0.50615821  0.84380367  0.08666633    -0.11000
C699        C  0.50465980  0.81515092  0.10191120    -0.12600
C700        C  0.84793700  0.00106458  0.41360617    -0.11000
C701        C  0.81939855  0.99903757  0.39834979    -0.12600
C702        C  0.68375496  0.99676681  0.39725869    -0.11000
C703        C  0.65437411  0.99596534  0.41166576    -0.12600
C704        C  0.84957327  0.99892359  0.08809236    -0.11000
C705        C  0.82030977  0.99752778  0.10251366    -0.12600
C706        C  0.68467932  0.99513542  0.10191316    -0.11000
C707        C  0.65601991  0.99367006  0.08666719    -0.12600
C708        C  0.62235452  0.49059803  0.56829482     0.44700
N709        N  0.56381468  0.99035534  0.55667878     0.03600
C710        C  0.99089055  0.91861634  0.91789908    -0.04300
H711        H  0.57203753  0.52587297  0.89681494     0.09100
C712        C  0.97409207  0.61608027  0.96185134    -0.04600
Co713      Co  0.55465325  0.94517554  0.99686647     0.74200
N714        N  0.55832629  0.99555313  0.93953827    -0.23800
Co715      Co  0.99920427  0.50060366  0.94071633     0.74100
C716        C  0.49506731  0.61821205  0.93182451     0.44800
N717        N  0.97870571  0.57549061  0.53899047     0.03200
N718        N  0.99441018  0.55971765  0.94331051     0.03300
N719        N  0.52736528  0.88336227  0.95506747    -0.44700
H720        H  0.64278039  0.95482218  0.52349878     0.09100
N721        N  0.57953545  0.97466903  0.96102562     0.03600
N722        N  0.94009281  0.50536887  0.94331518     0.03300
C723        C  0.88159058  0.00468657  0.93183154     0.44900
N724        N  0.99963800  0.55425296  0.56043395    -0.23300
C725        C  0.53006441  0.87967184  0.53820649    -0.04200
N726        N  0.58655283  0.50206763  0.57874434    -0.44400
N727        N  0.91740420  0.99337410  0.92135684    -0.44600
C728        C  0.00925851  0.87748078  0.56830529     0.44700
N729        N  0.52516779  0.92027319  0.96102915     0.03600
N730        N  0.94558524  0.50016440  0.56044042    -0.23300
N731        N  0.58274412  0.97115302  0.53291001    -0.23800
N732        N  0.92433232  0.52108157  0.53899720     0.03200
H733        H  0.93196945  0.96948997  0.60298926     0.09100
H734        H  0.86105281  0.54046055  0.97661191     0.09200
N735        N  0.50427523  0.94147216  0.93954056    -0.23800
N736        N  0.97520872  0.57868127  0.96706614    -0.23400
N737        N  0.50949717  0.93600726  0.55668679     0.03600
C738        C  0.61945060  0.49390178  0.92856135     0.45000
C739        C  0.51322157  0.57706075  0.58199416    -0.04700
N740        N  0.92112530  0.52456495  0.96707158    -0.23400
H741        H  0.95928947  0.63875229  0.97660435     0.09100
N742        N  0.61644420  0.97248768  0.95506328    -0.44700
H743        H  0.53029590  0.56788478  0.60298860     0.09100
C744        C  0.88449450  0.00150314  0.57134213     0.44800
C745        C  0.62014961  0.96978700  0.53819981    -0.04200
Co746      Co  0.50469482  0.99512924  0.55926928     0.73800
N747        N  0.97669554  0.61240138  0.54490251    -0.44400
C748        C  0.00594887  0.88035463  0.92856554     0.45100
N749        N  0.99778643  0.91328294  0.57875314    -0.44400
Co750      Co  0.94919851  0.55059844  0.50312896     0.73900
C751        C  0.88372766  0.52566387  0.96185909    -0.04700
C752        C  0.58118320  0.50894383  0.91789597    -0.04300
N753        N  0.52869622  0.91707769  0.53291644    -0.23800
N754        N  0.50639534  0.58239954  0.92135217    -0.44500
H755        H  0.97395676  0.92775284  0.89681819     0.09100
C756        C  0.92277994  0.98656196  0.58199811    -0.04700
Cl757      Cl  0.50193696  0.49788245  0.49999569    -0.47700
C758        C  0.49825165  0.61533836  0.57133821     0.44900
H759        H  0.54502296  0.85703987  0.52350193     0.09100
N760        N  0.88742462  0.52306343  0.54490937    -0.44400
C761        C  0.50412543  0.74765579  0.66894357     0.82500
N762        N  0.50434736  0.78062791  0.65238682    -0.75800
C763        C  0.50390989  0.78047769  0.61953175     0.84900
N764        N  0.50331173  0.74738477  0.60325511    -0.75800
C765        C  0.50311260  0.71444150  0.61977781     0.85000
N766        N  0.50349964  0.71457541  0.65261519    -0.77500
C767        C  0.50366365  0.74718692  0.83108826     0.82500
N768        N  0.50285987  0.71438906  0.84776364    -0.75800
C769        C  0.50212464  0.71488822  0.88061616     0.84900
N770        N  0.50210352  0.74816007  0.89676721    -0.75800
C771        C  0.50286851  0.78093064  0.88012440     0.85000
N772        N  0.50365670  0.78044787  0.84729310    -0.77500
C773        C  0.75219428  0.99557405  0.66894410     0.82500
N774        N  0.71921584  0.99538688  0.65238731    -0.75800
C775        C  0.71936088  0.99584319  0.61953290     0.84900
N776        N  0.75245480  0.99642728  0.60325650    -0.75800
C777        C  0.78540467  0.99659230  0.61977938     0.85000
N778        N  0.78527595  0.99618670  0.65261659    -0.77500
C779        C  0.75261894  0.99609093  0.83108577     0.82500
N780        N  0.78541789  0.99688269  0.84776429    -0.75800
C781        C  0.78491359  0.99764269  0.88061610     0.84900
N782        N  0.75163553  0.99770060  0.89676355    -0.75800
C783        C  0.71886346  0.99694802  0.88011754     0.85000
N784        N  0.71935133  0.99613458  0.84728658    -0.77500
C785        C  0.75299495  0.99546849  0.79631274    -0.16300
C786        C  0.75285049  0.99516510  0.76711729     0.07800
C787        C  0.75242896  0.99506811  0.73291444     0.09700
C788        C  0.75214345  0.99520147  0.70371909    -0.16800
C789        C  0.50425888  0.74681868  0.79631431    -0.16300
C790        C  0.50454306  0.74697624  0.76711843     0.07800
C791        C  0.50462558  0.74741415  0.73291509     0.09700
C792        C  0.50448919  0.74770830  0.70371939    -0.17100
C793        C  0.50071796  0.68040494  0.89834754    -0.11000
C794        C  0.49868622  0.65186754  0.91360239    -0.12600
C795        C  0.50389196  0.84541505  0.91167442    -0.11000
C796        C  0.50307867  0.81603415  0.89726864    -0.12600
C797        C  0.50217982  0.67953471  0.60251150    -0.11000
C798        C  0.50080100  0.65026684  0.58808980    -0.12600
C799        C  0.50615838  0.84380361  0.58666634    -0.11000
C800        C  0.50465997  0.81515087  0.60191122    -0.12600
C801        C  0.84793694  0.00106465  0.91360621    -0.11000
C802        C  0.81939856  0.99903747  0.89834982    -0.12600
C803        C  0.68375499  0.99676696  0.89725876    -0.11000
C804        C  0.65437413  0.99596546  0.91166584    -0.12600
C805        C  0.84957328  0.99892372  0.58809239    -0.11000
C806        C  0.82030982  0.99752788  0.60251373    -0.12600
C807        C  0.68467927  0.99513554  0.60191307    -0.11000
C808        C  0.65601986  0.99367016  0.58666708    -0.12600
loop_ 
_geom_bond_atom_site_label_1 
_geom_bond_atom_site_label_2 
_geom_bond_distance 
_geom_bond_site_symmetry_2 
_ccdc_geom_bond_type 
C1           N19   1.347   1_565  A
C1          C240   1.454       .  S
C1          C303   1.435       .  S
N2           N24   1.321       .  A
N2          N221   1.325       .  A
N2          Co39   2.084       .  S
C3          N432   1.341       .  A
C3           C41   1.454       .  S
C3           H48   1.082       .  S
H4           C45   1.082       .  S
C5           N29   1.341       .  A
C5          C413   1.455       .  S
C5           H34   1.082       .  S
Co6          N14   2.085       .  S
Co6          N22   2.085       .  S
Co6         N125   2.082       .  S
Co6         N147   2.083       .  S
Co6        Cl353   2.449       .  S
N7          C247   1.341       .  A
N7           N14   1.321       .  A
N7         Co614   2.082   1_455  S
Co8          N11   2.084       .  S
Co8          N15   2.084       .  S
Co8         N613   2.082   1_545  S
Co8         N634   2.082   1_545  S
Co8        Cl555   2.453   1_545  S
C9           N47   1.347   1_655  A
C9          C409   1.455       .  S
C9           C87   1.435       .  S
N10          N17   1.321       .  A
N10          N40   1.325       .  A
N10         Co43   2.086       .  S
N11          N29   1.321       .  A
N11         N451   1.325       .  A
N12         C445   1.347       .  A
N12          N22   1.325       .  A
H13          C38   1.082       .  S
N14          N35   1.325       .  A
N15          N33   1.321       .  A
N15         N222   1.325   1_545  A
C16          N20   1.347       .  A
C16         C246   1.455       .  S
C16          C94   1.435       .  S
N17         C436   1.341       .  A
N17        Co645   2.082   1_545  S
C18          N46   1.340       .  A
C18         C425   1.454       .  S
C18          H52   1.082       .  S
N19         N204   1.325   1_545  A
N20         N217   1.325       .  A
C21          N42   1.347       .  A
C21         C422   1.454       .  S
C21         C496   1.435       .  S
N22          N28   1.321       .  A
N23         C251   1.341   1_545  A
N23          N25   1.321       .  A
N23        Co645   2.082   1_545  S
N24          C38   1.340       .  A
N24        Co107   2.082   1_554  S
N25          N53   1.325       .  A
N25         Co43   2.086       .  S
H26          C49   1.082       .  S
H27          C44   1.082       .  S
N28         C407   1.341   1_455  A
N28        Co614   2.082   1_455  S
N29        Co144   2.084       .  S
N30          N46   1.321       .  A
N30         N446   1.325   1_455  A
N30         Co39   2.084       .  S
C31         N237   1.347       .  A
C31          C45   1.454   1_565  S
C31         C299   1.434       .  S
C32         N421   1.341   1_455  A
C32          C51   1.454   1_455  S
C32          H36   1.082       .  S
N33          C44   1.341       .  A
N33        Co144   2.084       .  S
N35         C233   1.347       .  A
C37         N255   1.347       .  A
C37          C49   1.454       .  S
C37          C98   1.435       .  S
C38         C203   1.454       .  S
Co39        N623   2.082   1_455  S
Co39        N629   2.082   1_455  S
Co39       Cl252   2.453   1_554  S
N40         C455   1.347       .  A
C41         N416   1.347       .  A
C41         C492   1.434       .  S
N42         N434   1.325       .  A
Co43        N130   2.084   1_554  S
Co43        N134   2.084   1_554  S
Co43       Cl454   2.449   1_544  S
C44         C218   1.455       .  S
C45         N209   1.341   1_545  A
N46        Co107   2.083   1_554  S
N47         N415   1.325   1_455  A
C49         N225   1.341       .  A
Cl50       Co309   2.449       .  S
Cl50       Co513   2.453   1_465  S
Cl50       Co241   2.453   1_556  S
Cl50       Co447   2.449   1_466  S
C51         N444   1.347       .  A
C51          C91   1.435   1_655  S
N53         C239   1.347       .  A
C54          N55   1.358       .  A
C54          N59   1.357       .  A
C54          C85   1.437       .  S
N55          C56   1.358       .  A
C56          N57   1.357       .  A
C56          C93   1.435       .  S
N57          C58   1.356       .  A
C58          N59   1.357       .  A
C58          C90   1.434       .  S
C60          N61   1.358       .  A
C60          N65   1.357       .  A
C60          C82   1.437       .  S
N61          C62   1.358       .  A
C62          N63   1.357       .  A
C62          C86   1.435       .  S
N63          C64   1.356       .  A
C64          N65   1.357       .  A
C64          C89   1.434       .  S
C66          N67   1.358       .  A
C66          N71   1.357       .  A
C66          C81   1.437       .  S
N67          C68   1.358       .  A
C68          N69   1.357       .  A
C68         C100   1.435       .  S
N69          C70   1.356       .  A
C70          N71   1.357       .  A
C70          C99   1.434       .  S
C72          N73   1.358       .  A
C72          N77   1.357       .  A
C72          C78   1.437       .  S
N73          C74   1.358       .  A
C74          N75   1.357       .  A
C74          C95   1.435       .  S
N75          C76   1.356       .  A
C76          N77   1.357       .  A
C76          C96   1.434       .  S
C78          C79   1.207       .  T
C79          C80   1.414       .  S
C80          C81   1.207       .  T
C82          C83   1.207       .  T
C83          C84   1.414       .  S
C84          C85   1.207       .  T
C86          C87   1.205   1_455  T
C88         C445   1.434       .  S
C88          C89   1.205       .  T
C90          C91   1.205       .  T
C92         C425   1.435       .  S
C92          C93   1.205       .  T
C94          C95   1.205       .  T
C96          C97   1.205       .  T
C97         C233   1.434       .  S
C98          C99   1.205       .  T
C100        C101   1.205       .  T
C101        C203   1.435       .  S
C102        N120   1.347   1_565  A
C102        C341   1.454       .  S
C102        C404   1.435       .  S
N103        N322   1.325       .  A
N103        N125   1.321       .  A
N103       Co140   2.084       .  S
C104        N533   1.341       .  A
C104        C142   1.454       .  S
C104        H149   1.082       .  S
H105        C146   1.082       .  S
C106        N130   1.341       .  A
C106        C514   1.455       .  S
C106        H135   1.082       .  S
Co107       N115   2.085       .  S
Co107       N123   2.085       .  S
Co107      Cl252   2.449       .  S
N108        C348   1.341       .  A
N108        N115   1.321       .  A
N108       Co715   2.082   1_455  S
Co109       N714   2.082   1_545  S
Co109       N112   2.084       .  S
Co109       N735   2.082   1_545  S
Co109       N116   2.084       .  S
Co109      Cl454   2.453   1_545  S
C110        N148   1.347   1_655  A
C110        C510   1.455       .  S
C110        C188   1.435       .  S
N111        N118   1.321       .  A
N111        N141   1.325       .  A
N111       Co144   2.086       .  S
N112        N130   1.321       .  A
N112        N552   1.325       .  A
N113        C546   1.347       .  A
N113        N123   1.325       .  A
H114        C139   1.082       .  S
N115        N136   1.325       .  A
N116        N134   1.321       .  A
N116        N323   1.325   1_545  A
C117        N121   1.347       .  A
C117        C347   1.455       .  S
C117        C195   1.435       .  S
N118        C537   1.341       .  A
N118       Co746   2.082   1_545  S
C119        N147   1.340       .  A
C119        C526   1.454       .  S
C119        H153   1.082       .  S
N120        N305   1.325   1_545  A
N121        N318   1.325       .  A
C122        N143   1.347       .  A
C122        C523   1.454       .  S
C122        C597   1.435       .  S
N123        N129   1.321       .  A
N124        C352   1.341   1_545  A
N124        N126   1.321       .  A
N124       Co746   2.082   1_545  S
N125        C139   1.340       .  A
N126        N154   1.325       .  A
N126       Co144   2.086       .  S
H127        C150   1.082       .  S
H128        C145   1.082       .  S
N129        C508   1.341   1_455  A
N129       Co715   2.082   1_455  S
N131        N547   1.325   1_455  A
N131        N147   1.321       .  A
N131       Co140   2.084       .  S
C132        N338   1.347       .  A
C132        C146   1.454   1_565  S
C132        C400   1.434       .  S
C133        N522   1.341   1_455  A
C133        C152   1.454   1_455  S
C133        H137   1.082       .  S
N134        C145   1.341       .  A
N136        C334   1.347       .  A
C138        N356   1.347       .  A
C138        C150   1.454       .  S
C138        C199   1.435       .  S
C139        C304   1.454       .  S
Co140       N724   2.082   1_455  S
Co140       N730   2.082   1_455  S
Co140      Cl353   2.453       .  S
N141        C556   1.347       .  A
C142        N517   1.347       .  A
C142        C593   1.434       .  S
N143        N535   1.325       .  A
Co144      Cl555   2.449   1_545  S
C145        C319   1.455       .  S
C146        N310   1.341   1_545  A
N148        N516   1.325   1_455  A
C150        N326   1.341       .  A
Cl151      Co208   2.449       .  S
Cl151      Co412   2.453   1_465  S
Cl151      Co342   2.453       .  S
Cl151      Co548   2.449   1_465  S
C152        N545   1.347       .  A
C152        C192   1.435   1_655  S
N154        C340   1.347       .  A
C155        N156   1.358       .  A
C155        N160   1.357       .  A
C155        C186   1.437       .  S
N156        C157   1.358       .  A
C157        N158   1.357       .  A
C157        C194   1.435       .  S
N158        C159   1.356       .  A
C159        N160   1.357       .  A
C159        C191   1.434       .  S
C161        N162   1.358       .  A
C161        N166   1.357       .  A
C161        C183   1.437       .  S
N162        C163   1.358       .  A
C163        N164   1.357       .  A
C163        C187   1.435       .  S
N164        C165   1.356       .  A
C165        N166   1.357       .  A
C165        C190   1.434       .  S
C167        N168   1.358       .  A
C167        N172   1.357       .  A
C167        C182   1.437       .  S
N168        C169   1.358       .  A
C169        N170   1.357       .  A
C169        C201   1.435       .  S
N170        C171   1.356       .  A
C171        N172   1.357       .  A
C171        C200   1.434       .  S
C173        N174   1.358       .  A
C173        N178   1.357       .  A
C173        C179   1.437       .  S
N174        C175   1.358       .  A
C175        N176   1.357       .  A
C175        C196   1.435       .  S
N176        C177   1.356       .  A
C177        N178   1.357       .  A
C177        C197   1.434       .  S
C179        C180   1.207       .  T
C180        C181   1.414       .  S
C181        C182   1.207       .  T
C183        C184   1.207       .  T
C184        C185   1.414       .  S
C185        C186   1.207       .  T
C187        C188   1.205   1_455  T
C189        C546   1.434       .  S
C189        C190   1.205       .  T
C191        C192   1.205       .  T
C193        C526   1.435       .  S
C193        C194   1.205       .  T
C195        C196   1.205       .  T
C197        C198   1.205       .  T
C198        C334   1.434       .  S
C199        C200   1.205       .  T
C201        C202   1.205       .  T
C202        C304   1.435       .  S
C203        N221   1.347       .  A
N204        N226   1.321       .  A
N204       Co241   2.084       .  S
C205        N634   1.341       .  A
C205        C243   1.454       .  S
C205        H250   1.082       .  S
H206        C247   1.082       .  S
C207        N231   1.341       .  A
C207        C615   1.455       .  S
C207        H236   1.082       .  S
Co208       N327   2.082       .  S
Co208       N216   2.085       .  S
Co208       N349   2.083       .  S
Co208       N224   2.085       .  S
N209        N216   1.321       .  A
N209       Co412   2.082   1_465  S
Co210       N411   2.082       .  S
Co210       N213   2.084       .  S
Co210       N432   2.082       .  S
Co210       N217   2.084       .  S
Co210      Cl757   2.453       .  S
C211        N249   1.347   1_655  A
C211        C611   1.455       .  S
C211        C289   1.435       .  S
N212        N219   1.321       .  A
N212        N242   1.325       .  A
N212       Co245   2.086       .  S
N213        N231   1.321       .  A
N213        N653   1.325       .  A
N214        C647   1.347       .  A
N214        N224   1.325       .  A
H215        C240   1.082       .  S
N216        N237   1.325       .  A
N217        N235   1.321       .  A
C218        N222   1.347   1_545  A
C218        C296   1.435       .  S
N219        C638   1.341       .  A
N219       Co443   2.082       .  S
C220        N248   1.340       .  A
C220        C627   1.454       .  S
C220        H254   1.082       .  S
C223        N244   1.347       .  A
C223        C624   1.454       .  S
C223        C698   1.435       .  S
N224        N230   1.321       .  A
N225        N227   1.321       .  A
N225       Co443   2.082       .  S
N226        C240   1.340       .  A
N226       Co309   2.082   1_554  S
N227        N255   1.325       .  A
N227       Co245   2.086       .  S
H228        C251   1.082       .  S
H229        C246   1.082       .  S
N230        C609   1.341   1_455  A
N230       Co412   2.082   1_465  S
N231       Co346   2.084       .  S
N232        N648   1.325   1_455  A
N232        N248   1.321       .  A
N232       Co241   2.084       .  S
C233        C247   1.454       .  S
C234        N623   1.341   1_455  A
C234        C253   1.454   1_455  S
C234        H238   1.082       .  S
N235        C246   1.341       .  A
N235       Co346   2.084       .  S
C239        C251   1.454   1_545  S
C239        C300   1.435   1_545  S
Co241       N421   2.082   1_465  S
Co241       N427   2.082   1_465  S
N242        C657   1.347       .  A
C243        N618   1.347       .  A
C243        C694   1.434       .  S
N244        N636   1.325       .  A
Co245       N332   2.084   1_554  S
Co245       N336   2.084   1_554  S
Co245      Cl656   2.449   1_554  S
N248       Co309   2.083   1_554  S
N249        N617   1.325   1_455  A
Cl252      Co715   2.453   1_455  S
Cl252      Co649   2.449   1_456  S
C253        N646   1.347       .  A
C253        C293   1.435   1_655  S
C256        N257   1.358       .  A
C256        N261   1.357       .  A
C256        C287   1.437       .  S
N257        C258   1.358       .  A
C258        N259   1.357       .  A
C258        C295   1.435       .  S
N259        C260   1.356       .  A
C260        N261   1.357       .  A
C260        C292   1.434       .  S
C262        N263   1.358       .  A
C262        N267   1.357       .  A
C262        C284   1.437       .  S
N263        C264   1.358       .  A
C264        N265   1.357       .  A
C264        C288   1.435       .  S
N265        C266   1.356       .  A
C266        N267   1.357       .  A
C266        C291   1.434       .  S
C268        N269   1.358       .  A
C268        N273   1.357       .  A
C268        C283   1.437       .  S
N269        C270   1.358       .  A
C270        N271   1.357       .  A
C270        C302   1.435       .  S
N271        C272   1.356       .  A
C272        N273   1.357       .  A
C272        C301   1.434       .  S
C274        N275   1.358       .  A
C274        N279   1.357       .  A
C274        C280   1.437       .  S
N275        C276   1.358       .  A
C276        N277   1.357       .  A
C276        C297   1.435       .  S
N277        C278   1.356       .  A
C278        N279   1.357       .  A
C278        C298   1.434       .  S
C280        C281   1.207       .  T
C281        C282   1.414       .  S
C282        C283   1.207       .  T
C284        C285   1.207       .  T
C285        C286   1.414       .  S
C286        C287   1.207       .  T
C288        C289   1.205   1_455  T
C290        C647   1.434       .  S
C290        C291   1.205       .  T
C292        C293   1.205       .  T
C294        C627   1.435       .  S
C294        C295   1.205       .  T
C296        C297   1.205   1_545  T
C298        C299   1.205       .  T
C300        C301   1.205       .  T
C302        C303   1.205       .  T
C304        N322   1.347       .  A
N305        N327   1.321       .  A
N305       Co342   2.084       .  S
C306        N735   1.341       .  A
C306        C344   1.454       .  S
C306        H351   1.082       .  S
H307        C348   1.082       .  S
C308        N332   1.341       .  A
C308        C716   1.455       .  S
C308        H337   1.082       .  S
Co309       N317   2.085       .  S
Co309       N325   2.085       .  S
N310        N317   1.321       .  A
N310       Co513   2.082   1_465  S
Co311       N512   2.082       .  S
Co311       N314   2.084       .  S
Co311       N533   2.082       .  S
Co311       N318   2.084       .  S
Co311      Cl656   2.453       .  S
C312        N350   1.347   1_655  A
C312        C712   1.455       .  S
C312        C390   1.435       .  S
N313        N320   1.321       .  A
N313        N343   1.325       .  A
N313       Co346   2.086       .  S
N314        N332   1.321       .  A
N314        N754   1.325       .  A
N315        C748   1.347       .  A
N315        N325   1.325       .  A
H316        C341   1.082       .  S
N317        N338   1.325       .  A
N318        N336   1.321       .  A
C319        N323   1.347   1_545  A
C319        C397   1.435       .  S
N320        C739   1.341       .  A
N320       Co544   2.082       .  S
C321        N349   1.340       .  A
C321        C728   1.454       .  S
C321        H355   1.082       .  S
C324        N345   1.347       .  A
C324        C725   1.454       .  S
C324        C799   1.435       .  S
N325        N331   1.321       .  A
N326        N328   1.321       .  A
N326       Co544   2.082       .  S
N327        C341   1.340       .  A
N328        N356   1.325       .  A
N328       Co346   2.086       .  S
H329        C352   1.082       .  S
H330        C347   1.082       .  S
N331        C710   1.341   1_455  A
N331       Co513   2.082   1_465  S
N333        N749   1.325   1_455  A
N333        N349   1.321       .  A
N333       Co342   2.084       .  S
C334        C348   1.454       .  S
C335        N724   1.341   1_455  A
C335        C354   1.454   1_455  S
C335        H339   1.082       .  S
N336        C347   1.341       .  A
C340        C352   1.454   1_545  S
C340        C401   1.435   1_545  S
Co342       N522   2.082   1_465  S
Co342       N528   2.082   1_465  S
N343        C758   1.347       .  A
C344        N719   1.347       .  A
C344        C795   1.434       .  S
N345        N737   1.325       .  A
Co346      Cl757   2.449       .  S
N350        N718   1.325   1_455  A
Cl353      Co614   2.453   1_455  S
Cl353      Co750   2.449   1_455  S
C354        N747   1.347       .  A
C354        C394   1.435   1_655  S
C357        N358   1.358       .  A
C357        N362   1.357       .  A
C357        C388   1.437       .  S
N358        C359   1.358       .  A
C359        N360   1.357       .  A
C359        C396   1.435       .  S
N360        C361   1.356       .  A
C361        N362   1.357       .  A
C361        C393   1.434       .  S
C363        N364   1.358       .  A
C363        N368   1.357       .  A
C363        C385   1.437       .  S
N364        C365   1.358       .  A
C365        N366   1.357       .  A
C365        C389   1.435       .  S
N366        C367   1.356       .  A
C367        N368   1.357       .  A
C367        C392   1.434       .  S
C369        N370   1.358       .  A
C369        N374   1.357       .  A
C369        C384   1.437       .  S
N370        C371   1.358       .  A
C371        N372   1.357       .  A
C371        C403   1.435       .  S
N372        C373   1.356       .  A
C373        N374   1.357       .  A
C373        C402   1.434       .  S
C375        N376   1.358       .  A
C375        N380   1.357       .  A
C375        C381   1.437       .  S
N376        C377   1.358       .  A
C377        N378   1.357       .  A
C377        C398   1.435       .  S
N378        C379   1.356       .  A
C379        N380   1.357       .  A
C379        C399   1.434       .  S
C381        C382   1.207       .  T
C382        C383   1.414       .  S
C383        C384   1.207       .  T
C385        C386   1.207       .  T
C386        C387   1.414       .  S
C387        C388   1.207       .  T
C389        C390   1.205   1_455  T
C391        C748   1.434       .  S
C391        C392   1.205       .  T
C393        C394   1.205       .  T
C395        C728   1.435       .  S
C395        C396   1.205       .  T
C397        C398   1.205   1_545  T
C399        C400   1.205       .  T
C401        C402   1.205       .  T
C403        C404   1.205       .  T
C405        N423   1.347   1_565  A
C405        C644   1.454       .  S
C405        C707   1.435       .  S
N406        N625   1.325       .  A
N406        N428   1.321       .  A
N406       Co443   2.084       .  S
C407        C445   1.454   1_655  S
C407        H452   1.082       .  S
H408        C449   1.082       .  S
C409        N433   1.341       .  A
C409        H438   1.082       .  S
Co410       N529   2.082       .  S
Co410       N418   2.085       .  S
Co410       N551   2.083       .  S
Co410       N426   2.085       .  S
Co410      Cl757   2.449       .  S
N411        C651   1.341       .  A
N411        N418   1.321       .  A
Co412       N415   2.084       .  S
Co412       N419   2.084       .  S
C413        N451   1.347       .  A
C413        C491   1.435       .  S
N414        N421   1.321       .  A
N414        N444   1.325       .  A
N414       Co447   2.086       .  S
N415        N433   1.321       .  A
N416        N426   1.325       .  A
H417        C442   1.082       .  S
N418        N439   1.325       .  A
N419        N437   1.321       .  A
N419        N626   1.325   1_545  A
C420        N424   1.347       .  A
C420        C650   1.455       .  S
C420        C498   1.435       .  S
C422        N450   1.340       .  A
C422        H456   1.082       .  S
N423        N608   1.325   1_545  A
N424        N621   1.325       .  A
C425        N446   1.347   1_455  A
N426        N432   1.321       .  A
N427        C655   1.341   1_545  A
N427        N429   1.321       .  A
N428        C442   1.340       .  A
N428       Co511   2.082   1_554  S
N429        N457   1.325       .  A
N429       Co447   2.086       .  S
H430        C453   1.082       .  S
H431        C448   1.082       .  S
N433       Co548   2.084       .  S
N434        N450   1.321       .  A
N434       Co443   2.084       .  S
C435        N641   1.347       .  A
C435        C449   1.454   1_565  S
C435        C703   1.434       .  S
C436        C455   1.454       .  S
C436        H440   1.082       .  S
N437        C448   1.341       .  A
N437       Co548   2.084       .  S
N439        C637   1.347       .  A
C441        N659   1.347       .  A
C441        C453   1.454       .  S
C441        C502   1.435       .  S
C442        C607   1.454       .  S
Co443      Cl656   2.453   1_554  S
Co447       N534   2.084   1_554  S
Co447       N538   2.084   1_554  S
C448        C622   1.455       .  S
C449        N613   1.341   1_545  A
N450       Co511   2.083   1_554  S
C453        N629   1.341       .  A
Cl454      Co713   2.449       .  S
Cl454      Co645   2.453   1_556  S
C455        C495   1.435       .  S
N457        C643   1.347       .  A
C458        N459   1.358       .  A
C458        N463   1.357       .  A
C458        C489   1.437       .  S
N459        C460   1.358       .  A
C460        N461   1.357       .  A
C460        C497   1.435       .  S
N461        C462   1.356       .  A
C462        N463   1.357       .  A
C462        C494   1.434       .  S
C464        N465   1.358       .  A
C464        N469   1.357       .  A
C464        C486   1.437       .  S
N465        C466   1.358       .  A
C466        N467   1.357       .  A
C466        C490   1.435       .  S
N467        C468   1.356       .  A
C468        N469   1.357       .  A
C468        C493   1.434       .  S
C470        N471   1.358       .  A
C470        N475   1.357       .  A
C470        C485   1.437       .  S
N471        C472   1.358       .  A
C472        N473   1.357       .  A
C472        C504   1.435       .  S
N473        C474   1.356       .  A
C474        N475   1.357       .  A
C474        C503   1.434       .  S
C476        N477   1.358       .  A
C476        N481   1.357       .  A
C476        C482   1.437       .  S
N477        C478   1.358       .  A
C478        N479   1.357       .  A
C478        C499   1.435       .  S
N479        C480   1.356       .  A
C480        N481   1.357       .  A
C480        C500   1.434       .  S
C482        C483   1.207       .  T
C483        C484   1.414       .  S
C484        C485   1.207       .  T
C486        C487   1.207       .  T
C487        C488   1.414       .  S
C488        C489   1.207       .  T
C490        C491   1.205       .  T
C492        C493   1.205       .  T
C494        C495   1.205       .  T
C496        C497   1.205       .  T
C498        C499   1.205       .  T
C500        C501   1.205       .  T
C501        C637   1.434       .  S
C502        C503   1.205       .  T
C504        C505   1.205       .  T
C505        C607   1.435       .  S
C506        N524   1.347   1_565  A
C506        C745   1.454       .  S
C506        C808   1.435       .  S
N507        N726   1.325       .  A
N507        N529   1.321       .  A
N507       Co544   2.084       .  S
C508        C546   1.454   1_655  S
C508        H553   1.082       .  S
H509        C550   1.082       .  S
C510        N534   1.341       .  A
C510        H539   1.082       .  S
Co511       N519   2.085       .  S
Co511       N527   2.085       .  S
Co511      Cl656   2.449       .  S
N512        C752   1.341       .  A
N512        N519   1.321       .  A
Co513       N516   2.084       .  S
Co513       N520   2.084       .  S
C514        N552   1.347       .  A
C514        C592   1.435       .  S
N515        N522   1.321       .  A
N515        N545   1.325       .  A
N515       Co548   2.086       .  S
N516        N534   1.321       .  A
N517        N527   1.325       .  A
H518        C543   1.082       .  S
N519        N540   1.325       .  A
N520        N538   1.321       .  A
N520        N727   1.325   1_545  A
C521        N525   1.347       .  A
C521        C751   1.455       .  S
C521        C599   1.435       .  S
C523        N551   1.340       .  A
C523        H557   1.082       .  S
N524        N709   1.325   1_545  A
N525        N722   1.325       .  A
C526        N547   1.347   1_455  A
N527        N533   1.321       .  A
N528        C756   1.341   1_545  A
N528        N530   1.321       .  A
N529        C543   1.340       .  A
N530        N558   1.325       .  A
N530       Co548   2.086       .  S
H531        C554   1.082       .  S
H532        C549   1.082       .  S
N535        N551   1.321       .  A
N535       Co544   2.084       .  S
C536        N742   1.347       .  A
C536        C550   1.454   1_565  S
C536        C804   1.434       .  S
C537        C556   1.454       .  S
C537        H541   1.082       .  S
N538        C549   1.341       .  A
N540        C738   1.347       .  A
C542        N760   1.347       .  A
C542        C554   1.454       .  S
C542        C603   1.435       .  S
C543        C708   1.454       .  S
Co544      Cl757   2.453       .  S
C549        C723   1.455       .  S
C550        N714   1.341   1_545  A
C554        N730   1.341       .  A
Cl555      Co612   2.449       .  S
Cl555      Co746   2.453       .  S
C556        C596   1.435       .  S
N558        C744   1.347       .  A
C559        N560   1.358       .  A
C559        N564   1.357       .  A
C559        C590   1.437       .  S
N560        C561   1.358       .  A
C561        N562   1.357       .  A
C561        C598   1.435       .  S
N562        C563   1.356       .  A
C563        N564   1.357       .  A
C563        C595   1.434       .  S
C565        N566   1.358       .  A
C565        N570   1.357       .  A
C565        C587   1.437       .  S
N566        C567   1.358       .  A
C567        N568   1.357       .  A
C567        C591   1.435       .  S
N568        C569   1.356       .  A
C569        N570   1.357       .  A
C569        C594   1.434       .  S
C571        N572   1.358       .  A
C571        N576   1.357       .  A
C571        C586   1.437       .  S
N572        C573   1.358       .  A
C573        N574   1.357       .  A
C573        C605   1.435       .  S
N574        C575   1.356       .  A
C575        N576   1.357       .  A
C575        C604   1.434       .  S
C577        N578   1.358       .  A
C577        N582   1.357       .  A
C577        C583   1.437       .  S
N578        C579   1.358       .  A
C579        N580   1.357       .  A
C579        C600   1.435       .  S
N580        C581   1.356       .  A
C581        N582   1.357       .  A
C581        C601   1.434       .  S
C583        C584   1.207       .  T
C584        C585   1.414       .  S
C585        C586   1.207       .  T
C587        C588   1.207       .  T
C588        C589   1.414       .  S
C589        C590   1.207       .  T
C591        C592   1.205       .  T
C593        C594   1.205       .  T
C595        C596   1.205       .  T
C597        C598   1.205       .  T
C599        C600   1.205       .  T
C601        C602   1.205       .  T
C602        C738   1.434       .  S
C603        C604   1.205       .  T
C605        C606   1.205       .  T
C606        C708   1.435       .  S
C607        N625   1.347       .  A
N608        N630   1.321       .  A
N608       Co645   2.084       .  S
C609        C647   1.454   1_655  S
C609        H654   1.082       .  S
H610        C651   1.082       .  S
C611        N635   1.341       .  A
C611        H640   1.082       .  S
Co612       N731   2.082       .  S
Co612       N620   2.085       .  S
Co612       N753   2.083       .  S
Co612       N628   2.085       .  S
N613        N620   1.321       .  A
Co614       N617   2.084       .  S
Co614       N621   2.084       .  S
C615        N653   1.347       .  A
C615        C693   1.435       .  S
N616        N623   1.321       .  A
N616        N646   1.325       .  A
N616       Co649   2.086       .  S
N617        N635   1.321       .  A
N618        N628   1.325       .  A
H619        C644   1.082       .  S
N620        N641   1.325       .  A
N621        N639   1.321       .  A
C622        N626   1.347   1_545  A
C622        C700   1.435       .  S
C624        N652   1.340       .  A
C624        H658   1.082       .  S
C627        N648   1.347   1_455  A
N628        N634   1.321       .  A
N629        N631   1.321       .  A
N630        C644   1.340       .  A
N630       Co713   2.082   1_554  S
N631        N659   1.325       .  A
N631       Co649   2.086       .  S
H632        C655   1.082       .  S
H633        C650   1.082       .  S
N635       Co750   2.084       .  S
N636        N652   1.321       .  A
N636       Co645   2.084       .  S
C637        C651   1.454       .  S
C638        C657   1.454       .  S
C638        H642   1.082       .  S
N639        C650   1.341       .  A
N639       Co750   2.084       .  S
C643        C655   1.454   1_545  S
C643        C704   1.435   1_545  S
Co649       N736   2.084   1_554  S
Co649       N740   2.084   1_554  S
N652       Co713   2.083   1_554  S
C657        C697   1.435       .  S
C660        N661   1.358       .  A
C660        N665   1.357       .  A
C660        C691   1.437       .  S
N661        C662   1.358       .  A
C662        N663   1.357       .  A
C662        C699   1.435       .  S
N663        C664   1.356       .  A
C664        N665   1.357       .  A
C664        C696   1.434       .  S
C666        N667   1.358       .  A
C666        N671   1.357       .  A
C666        C688   1.437       .  S
N667        C668   1.358       .  A
C668        N669   1.357       .  A
C668        C692   1.435       .  S
N669        C670   1.356       .  A
C670        N671   1.357       .  A
C670        C695   1.434       .  S
C672        N673   1.358       .  A
C672        N677   1.357       .  A
C672        C687   1.437       .  S
N673        C674   1.358       .  A
C674        N675   1.357       .  A
C674        C706   1.435       .  S
N675        C676   1.356       .  A
C676        N677   1.357       .  A
C676        C705   1.434       .  S
C678        N679   1.358       .  A
C678        N683   1.357       .  A
C678        C684   1.437       .  S
N679        C680   1.358       .  A
C680        N681   1.357       .  A
C680        C701   1.435       .  S
N681        C682   1.356       .  A
C682        N683   1.357       .  A
C682        C702   1.434       .  S
C684        C685   1.207       .  T
C685        C686   1.414       .  S
C686        C687   1.207       .  T
C688        C689   1.207       .  T
C689        C690   1.414       .  S
C690        C691   1.207       .  T
C692        C693   1.205       .  T
C694        C695   1.205       .  T
C696        C697   1.205       .  T
C698        C699   1.205       .  T
C700        C701   1.205   1_545  T
C702        C703   1.205       .  T
C704        C705   1.205       .  T
C706        C707   1.205       .  T
C708        N726   1.347       .  A
N709        N731   1.321       .  A
N709       Co746   2.084       .  S
C710        C748   1.454   1_655  S
C710        H755   1.082       .  S
H711        C752   1.082       .  S
C712        N736   1.341       .  A
C712        H741   1.082       .  S
Co713       N721   2.085       .  S
Co713       N729   2.085       .  S
N714        N721   1.321       .  A
Co715       N718   2.084       .  S
Co715       N722   2.084       .  S
C716        N754   1.347       .  A
C716        C794   1.435       .  S
N717        N724   1.321       .  A
N717        N747   1.325       .  A
N717       Co750   2.086       .  S
N718        N736   1.321       .  A
N719        N729   1.325       .  A
H720        C745   1.082       .  S
N721        N742   1.325       .  A
N722        N740   1.321       .  A
C723        N727   1.347   1_545  A
C723        C801   1.435       .  S
C725        N753   1.340       .  A
C725        H759   1.082       .  S
C728        N749   1.347   1_455  A
N729        N735   1.321       .  A
N730        N732   1.321       .  A
N731        C745   1.340       .  A
N732        N760   1.325       .  A
N732       Co750   2.086       .  S
H733        C756   1.082       .  S
H734        C751   1.082       .  S
N737        N753   1.321       .  A
N737       Co746   2.084       .  S
C738        C752   1.454       .  S
C739        C758   1.454       .  S
C739        H743   1.082       .  S
N740        C751   1.341       .  A
C744        C756   1.454   1_545  S
C744        C805   1.435   1_545  S
C758        C798   1.435       .  S
C761        N762   1.358       .  A
C761        N766   1.357       .  A
C761        C792   1.437       .  S
N762        C763   1.358       .  A
C763        N764   1.357       .  A
C763        C800   1.435       .  S
N764        C765   1.356       .  A
C765        N766   1.357       .  A
C765        C797   1.434       .  S
C767        N768   1.358       .  A
C767        N772   1.357       .  A
C767        C789   1.437       .  S
N768        C769   1.358       .  A
C769        N770   1.357       .  A
C769        C793   1.435       .  S
N770        C771   1.356       .  A
C771        N772   1.357       .  A
C771        C796   1.434       .  S
C773        N774   1.358       .  A
C773        N778   1.357       .  A
C773        C788   1.437       .  S
N774        C775   1.358       .  A
C775        N776   1.357       .  A
C775        C807   1.435       .  S
N776        C777   1.356       .  A
C777        N778   1.357       .  A
C777        C806   1.434       .  S
C779        N780   1.358       .  A
C779        N784   1.357       .  A
C779        C785   1.437       .  S
N780        C781   1.358       .  A
C781        N782   1.357       .  A
C781        C802   1.435       .  S
N782        C783   1.356       .  A
C783        N784   1.357       .  A
C783        C803   1.434       .  S
C785        C786   1.207       .  T
C786        C787   1.414       .  S
C787        C788   1.207       .  T
C789        C790   1.207       .  T
C790        C791   1.414       .  S
C791        C792   1.207       .  T
C793        C794   1.205       .  T
C795        C796   1.205       .  T
C797        C798   1.205       .  T
C799        C800   1.205       .  T
C801        C802   1.205   1_545  T
C803        C804   1.205       .  T
C805        C806   1.205       .  T
C807        C808   1.205       .  T
