geometry optimzed in LAMMPS
_audit_creation_date              2020-11-30 
_audit_creation_method            'lammps2cif' 
_symmetry_space_group_name_H-M    'P1' 
_symmetry_Int_Tables_number       1 
_symmetry_cell_setting            triclinic 
loop_ 
_symmetry_equiv_pos_as_xyz 
  x,y,z 
_cell_length_a                    74.38528286791463 
_cell_length_b                    74.15464588772393 
_cell_length_c                    74.22018532390595 
_cell_angle_alpha                 89.97979030927993 
_cell_angle_beta                  90.02114528057751 
_cell_angle_gamma                 90.10652603602513 
loop_ 
_atom_site_label 
_atom_site_type_symbol 
_atom_site_fract_x 
_atom_site_fract_y 
_atom_site_fract_z 
_atom_site_charge 
N1          N  0.49960680  0.80040001  0.64743749    -0.27430
N2          N  0.50356548  0.81723479  0.64314136    -0.35290
C3          C  0.50485853  0.81861550  0.62515139     0.00910
C4          C  0.50137602  0.80188625  0.61770113     0.06930
C5          C  0.49820601  0.79058761  0.63223338    -0.06170
H6          H  0.50788898  0.83096260  0.61798495     0.07600
H7          H  0.49549678  0.77626204  0.63187337     0.08800
Cu8        Cu  0.50614032  0.83776065  0.66181931     0.44170
Cu9        Cu  0.49682710  0.79192943  0.67392745     0.41990
Cu10       Cu  0.49984534  0.82705971  0.70872241     0.43880
N11         N  0.50404000  0.85701518  0.68184288    -0.34820
N12         N  0.50125053  0.85330398  0.69902757    -0.29070
C13         C  0.49906057  0.86888624  0.70808793    -0.05170
C14         C  0.50030117  0.88302798  0.69592417     0.07040
C15         C  0.50380463  0.87495420  0.67949782     0.00840
H16         H  0.49631366  0.86983811  0.72237526     0.08490
H17         H  0.50613475  0.88152207  0.66671300     0.07570
N18         N  0.49824500  0.79958143  0.71399582    -0.36270
N19         N  0.49668960  0.78699310  0.70144595    -0.28450
C20         C  0.49601888  0.77072581  0.70942284    -0.03690
C21         C  0.49718211  0.77318538  0.72783900     0.04920
C22         C  0.49876513  0.79159959  0.73026693     0.03010
H23         H  0.49536802  0.75802487  0.70227673     0.08120
H24         H  0.50026722  0.79867428  0.74293239     0.06950
N25         N  0.49612465  0.63842799  0.81126583    -0.27430
N26         N  0.49687318  0.63439634  0.82858609    -0.35290
C27         C  0.49722343  0.61641894  0.83050218     0.00910
C28         C  0.49652662  0.60865072  0.81359398     0.06930
C29         C  0.49592139  0.62301361  0.80164692    -0.06170
H30         H  0.49834515  0.60948603  0.84328681     0.07600
H31         H  0.49623992  0.62238673  0.78709312     0.08800
Cu32       Cu  0.49845728  0.65331881  0.84892357     0.44170
Cu33       Cu  0.49700312  0.66486573  0.80210537     0.41990
Cu34       Cu  0.50338123  0.69985077  0.83705176     0.43880
N35         N  0.49973511  0.67381103  0.86770251    -0.34820
N36         N  0.50173600  0.69102909  0.86356810    -0.29070
C37         C  0.50160455  0.70080494  0.87887872    -0.05170
C38         C  0.49910735  0.68910177  0.89321443     0.07040
C39         C  0.49821627  0.67211842  0.88563305     0.00840
H40         H  0.50278704  0.71533752  0.87949579     0.08490
H41         H  0.49663272  0.65940895  0.89261563     0.07570
N42         N  0.50250684  0.70474418  0.80949008    -0.36270
N43         N  0.49978455  0.69227322  0.79701310    -0.28450
C44         C  0.49911130  0.70027858  0.78076717    -0.03690
C45         C  0.50178813  0.71857922  0.78308443     0.04920
C46         C  0.50374256  0.72095777  0.80145803     0.03010
H47         H  0.49675787  0.69329147  0.76818176     0.08120
H48         H  0.50527010  0.73359532  0.80857632     0.06950
N49         N  0.85613322  0.69206735  0.50417847    -0.27430
N50         N  0.85984798  0.67526841  0.49966609    -0.35290
C51         C  0.87773627  0.67341689  0.49840521     0.00910
C52         C  0.88591357  0.68978338  0.50249011     0.06930
C53         C  0.87162746  0.70129727  0.50614720    -0.06170
H54         H  0.88433301  0.66081456  0.49524874     0.07600
H55         H  0.87221084  0.71507543  0.51077478     0.08800
Cu56       Cu  0.84079701  0.65483958  0.49793778     0.44170
Cu57       Cu  0.83002537  0.70111103  0.50791980     0.41990
Cu58       Cu  0.79578480  0.66566330  0.51110150     0.43880
N59         N  0.82070266  0.63566075  0.50131631    -0.34820
N60         N  0.80422530  0.63956445  0.50663787    -0.29070
C61         C  0.79483720  0.62418453  0.50879798    -0.05170
C62         C  0.80596009  0.60985424  0.50453129     0.07040
C63         C  0.82227122  0.61768108  0.49997012     0.00840
H64         H  0.78125690  0.62357147  0.51394382     0.08490
H65         H  0.83456566  0.61075074  0.49643161     0.07570
N66         N  0.79028948  0.69291491  0.51058777    -0.36270
N67         N  0.80255002  0.70576358  0.50910455    -0.28450
C68         C  0.79417652  0.72172840  0.50749521    -0.03690
C69         C  0.77580342  0.71873691  0.50776873     0.04920
C70         C  0.77385268  0.70033851  0.51003984     0.03010
H71         H  0.80095750  0.73452347  0.50569409     0.08120
H72         H  0.76149434  0.69276538  0.51122007     0.06950
N73         N  0.64211181  0.80199026  0.50633306    -0.27430
N74         N  0.63874737  0.81885920  0.51092946    -0.35290
C75         C  0.62088319  0.82122275  0.51188710     0.00910
C76         C  0.61251158  0.80516609  0.50730837     0.06930
C77         C  0.62641588  0.79317187  0.50415568    -0.06170
H78         H  0.61456178  0.83380523  0.51556099     0.07600
H79         H  0.62520553  0.77924279  0.49997374     0.08800
Cu80       Cu  0.65835328  0.83861002  0.51341497     0.44170
Cu81       Cu  0.66800050  0.79245806  0.50242862     0.41990
Cu82       Cu  0.70258736  0.82759326  0.49796756     0.43880
N83         N  0.67869265  0.85748906  0.51020253    -0.34820
N84         N  0.69481790  0.85363765  0.50386446    -0.29070
C85         C  0.70425623  0.86901562  0.50182983    -0.05170
C86         C  0.69352355  0.88326578  0.50726191     0.07040
C87         C  0.67741139  0.87539049  0.51239161     0.00840
H88         H  0.71752138  0.86972029  0.49592514     0.08490
H89         H  0.66535370  0.88227177  0.51674910     0.07570
N90         N  0.70767248  0.80023611  0.49804591    -0.36270
N91         N  0.69533397  0.78752938  0.50006273    -0.28450
C92         C  0.70357793  0.77147579  0.50146486    -0.03690
C93         C  0.72194893  0.77426951  0.50052696     0.04920
C94         C  0.72402963  0.79262371  0.49805925     0.03010
H95         H  0.69673726  0.75878189  0.50370434     0.08120
H96         H  0.73644344  0.80004960  0.49655186     0.06950
N97         N  0.80455748  0.49551555  0.64729732    -0.27430
N98         N  0.82157339  0.49736478  0.64252645    -0.35290
C99         C  0.82259520  0.49746953  0.62448048     0.00910
C100        C  0.80540576  0.49571753  0.61752353     0.06930
C101        C  0.79428316  0.49440856  0.63240793    -0.06170
H102        H  0.83500622  0.49844656  0.61693484     0.07600
H103        H  0.77993629  0.49207507  0.63253120     0.08800
Cu104      Cu  0.84284410  0.49878561  0.66057059     0.44170
Cu105      Cu  0.79631929  0.49411169  0.67379856     0.41990
Cu106      Cu  0.83133964  0.50032239  0.70748937     0.43880
N107        N  0.86174566  0.49931224  0.68113031    -0.34820
N108        N  0.85744851  0.49994805  0.69838195    -0.29070
C109        C  0.87252706  0.49996368  0.70835505    -0.05170
C110        C  0.88706903  0.49914727  0.69680068     0.07040
C111        C  0.87973714  0.49893745  0.67964437     0.00840
H112        H  0.87276973  0.50095357  0.72288464     0.08490
H113        H  0.88697373  0.49846912  0.66700222     0.07570
N114        N  0.80443269  0.49775261  0.71337474    -0.36270
N115        N  0.79175647  0.49503296  0.70119882    -0.28450
C116        C  0.77580232  0.49389198  0.70954613    -0.03690
C117        C  0.77860479  0.49586674  0.72785696     0.04920
C118        C  0.79690263  0.49849930  0.72978161     0.03010
H119        H  0.76306308  0.49202603  0.70275379     0.08120
H120        H  0.80422970  0.50146751  0.74199613     0.06950
N121        N  0.64346118  0.49019060  0.81029985    -0.27430
N122        N  0.63992341  0.48684296  0.82739662    -0.35290
C123        C  0.62205429  0.48615894  0.82961409     0.00910
C124        C  0.61381520  0.48940008  0.81314622     0.06930
C125        C  0.62791978  0.49196859  0.80119512    -0.06170
H126        H  0.61552087  0.48425632  0.84250373     0.07600
H127        H  0.62716200  0.49602112  0.78724391     0.08800
Cu128      Cu  0.65927348  0.48634131  0.84747576     0.44170
Cu129      Cu  0.66928066  0.49362423  0.80083611     0.41990
Cu130      Cu  0.70456784  0.49771568  0.83504682     0.43880
N131        N  0.67990432  0.48993856  0.86590438    -0.34820
N132        N  0.69657788  0.49415707  0.86141938    -0.29070
C133        C  0.70640708  0.49640900  0.87648327    -0.05170
C134        C  0.69530969  0.49346927  0.89113600     0.07040
C135        C  0.67860988  0.48953787  0.88393055     0.00840
H136        H  0.72031449  0.50068455  0.87669465     0.08490
H137        H  0.66629584  0.48702490  0.89128327     0.07570
N138        N  0.70891906  0.49879958  0.80761677    -0.36270
N139        N  0.69624099  0.49688752  0.79528306    -0.28450
C140        C  0.70384461  0.49680941  0.77889110    -0.03690
C141        C  0.72218289  0.49908677  0.78098278     0.04920
C142        C  0.72491364  0.50015181  0.79938234     0.03010
H143        H  0.69654189  0.49429722  0.76656799     0.08120
H144        H  0.73765531  0.50134723  0.80632060     0.06950
N145        N  0.80417595  0.85325310  0.00893717    -0.27430
N146        N  0.82138983  0.85650948  0.00622814    -0.35290
C147        C  0.82403043  0.87433789  0.00505038     0.00910
C148        C  0.80774115  0.88294929  0.00772385     0.06930
C149        C  0.79535244  0.86907428  0.00986424    -0.06170
H150        H  0.83688808  0.88034780  0.00201682     0.07600
H151        H  0.78102869  0.87038168  0.01202139     0.08800
Cu152      Cu  0.84069608  0.83669144  0.00512696     0.44170
Cu153      Cu  0.79449357  0.82709694  0.01006187     0.41990
Cu154      Cu  0.82841661  0.79057529  0.00170215     0.43880
N155        N  0.85916374  0.81605140  0.00485868    -0.34820
N156        N  0.85506686  0.79888861  0.00276674    -0.29070
C157        C  0.87040986  0.78922690  0.00211789    -0.05170
C158        C  0.88493932  0.80098434  0.00413583     0.07040
C159        C  0.87701203  0.81782851  0.00595931     0.00840
H160        H  0.87070101  0.77486251  0.99987818     0.08490
H161        H  0.88368265  0.83065498  0.00787470     0.07570
N162        N  0.80078177  0.78700157  0.00400075    -0.36270
N163        N  0.78889391  0.79985082  0.00735167    -0.28450
C164        C  0.77245621  0.79242625  0.00861867    -0.03690
C165        C  0.77398186  0.77408226  0.00573700     0.04920
C166        C  0.79213302  0.77111373  0.00304518     0.03010
H167        H  0.76045630  0.79986970  0.01204820     0.08120
H168        H  0.79863004  0.75826980  0.00073952     0.06950
N169        N  0.69393184  0.63766407  0.99984272    -0.27430
N170        N  0.67685393  0.63310393  0.99812613    -0.35290
C171        C  0.67554412  0.61504612  0.99822311     0.00910
C172        C  0.69264400  0.60787313  0.99995323     0.06930
C173        C  0.70399010  0.62264568  0.00105141    -0.06170
H174        H  0.66299738  0.60765782  0.99772277     0.07600
H175        H  0.71829149  0.62259824  0.00363861     0.08800
Cu176      Cu  0.65606281  0.65171058  0.99787167     0.44170
Cu177      Cu  0.70209292  0.66411907  0.00235310     0.41990
Cu178      Cu  0.66683551  0.69803552  0.00896438     0.43880
N179        N  0.63696697  0.67174578  0.00147902    -0.34820
N180        N  0.64070812  0.68854823  0.00610489    -0.29070
C181        C  0.62519136  0.69759678  0.00845064    -0.05170
C182        C  0.61101543  0.68583962  0.00535711     0.07040
C183        C  0.61905521  0.66968411  0.00063884     0.00840
H184        H  0.62429026  0.71159732  0.01245466     0.08490
H185        H  0.61248879  0.65730510  0.99666951     0.07570
N186        N  0.69422420  0.70352951  0.00895590    -0.36270
N187        N  0.70680010  0.69125582  0.00621012    -0.28450
C188        C  0.72296305  0.69930861  0.00601020    -0.03690
C189        C  0.72056468  0.71752785  0.00906826     0.04920
C190        C  0.70214591  0.71975059  0.01066447     0.03010
H191        H  0.73537286  0.69239554  0.00297707     0.08120
H192        H  0.69499797  0.73230170  0.01260650     0.06950
N193        N  0.80426856  0.99505344  0.86283012    -0.27430
N194        N  0.82055544  0.98909012  0.86665899    -0.35290
C195        C  0.82234413  0.98794291  0.88461965     0.00910
C196        C  0.80653220  0.99376619  0.89252374     0.06930
C197        C  0.79524689  0.99790153  0.87829187    -0.06170
H198        H  0.83439126  0.98338446  0.89135511     0.07600
H199        H  0.78171256  0.00316736  0.87911815     0.08800
Cu200      Cu  0.84047952  0.98501109  0.84755471     0.44170
Cu201      Cu  0.79566500  0.99943120  0.83669430     0.41990
Cu202      Cu  0.82992656  0.99499307  0.80144266     0.43880
N203        N  0.85973791  0.98750589  0.82749871    -0.34820
N204        N  0.85600371  0.99174373  0.81062000    -0.29070
C205        C  0.87149017  0.99427748  0.80156446    -0.05170
C206        C  0.88564308  0.99174595  0.81341380     0.07040
C207        C  0.87765746  0.98714835  0.82963896     0.00840
H208        H  0.87236950  0.99834903  0.78759057     0.08490
H209        H  0.88428564  0.98395595  0.84219496     0.07570
N210        N  0.80261592  0.99746327  0.79662979    -0.36270
N211        N  0.79032773  0.99945994  0.80933977    -0.28450
C212        C  0.77399292  0.00013120  0.80165695    -0.03690
C213        C  0.77603594  0.99812558  0.78323423     0.04920
C214        C  0.79438478  0.99671557  0.78053664     0.03010
H215        H  0.76165150  0.00205425  0.80907349     0.08120
H216        H  0.80123856  0.99482988  0.76781307     0.06950
N217        N  0.69228365  0.99371126  0.64741901    -0.27430
N218        N  0.67492385  0.99366050  0.64369229    -0.35290
C219        C  0.67274823  0.99465286  0.62576034     0.00910
C220        C  0.68955334  0.99586575  0.61776784     0.06930
C221        C  0.70163808  0.99492881  0.63194029    -0.06170
H222        H  0.65982276  0.99425346  0.61915517     0.07600
H223        H  0.71615042  0.99550705  0.63109679     0.08800
Cu224      Cu  0.65488872  0.99349447  0.66316188     0.44170
Cu225      Cu  0.70200338  0.99280619  0.67350580     0.41990
Cu226      Cu  0.66816061  0.99452471  0.70966981     0.43880
N227        N  0.63676014  0.99417039  0.68442142    -0.34820
N228        N  0.64147778  0.99424922  0.70156863    -0.29070
C229        C  0.62654848  0.99387044  0.71185385    -0.05170
C230        C  0.61161268  0.99373746  0.70059508     0.07040
C231        C  0.61876099  0.99392002  0.68331527     0.00840
H232        H  0.62677220  0.99305303  0.72637281     0.08490
H233        H  0.61137815  0.99368389  0.67075412     0.07570
N234        N  0.69575757  0.99485137  0.71369724    -0.36270
N235        N  0.70789368  0.99384458  0.70072346    -0.28450
C236        C  0.72439924  0.99411900  0.70807356    -0.03690
C237        C  0.72262942  0.99570098  0.72657519     0.04920
C238        C  0.70426407  0.99593717  0.72962094     0.03010
H239        H  0.73664798  0.99277087  0.70038597     0.08120
H240        H  0.69754240  0.99690624  0.74251652     0.06950
N241        N  0.99963646  0.80059686  0.86297995    -0.27430
N242        N  0.00085421  0.81785459  0.86725458    -0.35290
C243        C  0.00100537  0.81946623  0.88526478     0.00910
C244        C  0.99999695  0.80241849  0.89279237     0.06930
C245        C  0.99902271  0.79074676  0.87822992    -0.06170
H246        H  0.00155621  0.83218310  0.89240073     0.07600
H247        H  0.99726545  0.77627864  0.87859020     0.08800
Cu248      Cu  0.00138958  0.83866999  0.84863069     0.44170
Cu249      Cu  0.99832891  0.79162652  0.83650742     0.41990
Cu250      Cu  0.99862778  0.82682218  0.80180837     0.43880
N251        N  0.00026170  0.85756267  0.82809287    -0.34820
N252        N  0.99881342  0.85329245  0.81085775    -0.29070
C253        C  0.99781667  0.86854787  0.80105661    -0.05170
C254        C  0.99877813  0.88302044  0.81275114     0.07040
C255        C  0.00039495  0.87561072  0.82973727     0.00840
H256        H  0.99663908  0.86905871  0.78653300     0.08490
H257        H  0.00142763  0.88280783  0.84238073     0.07570
N258        N  0.99895231  0.79935114  0.79646397    -0.36270
N259        N  0.99848434  0.78663110  0.80896786    -0.28450
C260        C  0.99844447  0.77040238  0.80087425    -0.03690
C261        C  0.99922019  0.77303585  0.78244765     0.04920
C262        C  0.99937661  0.79153579  0.78012160     0.03010
H263        H  0.99797657  0.75761653  0.80788939     0.08120
H264        H  0.99933092  0.79882427  0.76749615     0.06950
N265        N  0.99909734  0.69003708  0.64722300    -0.27430
N266        N  0.00107536  0.67282304  0.64301762    -0.35290
C267        C  0.00213240  0.67122769  0.62502063     0.00910
C268        C  0.00075609  0.68822268  0.61752465     0.06930
C269        C  0.99868325  0.69984894  0.63194013    -0.06170
H270        H  0.00361246  0.65858393  0.61789904     0.07600
H271        H  0.99723144  0.71435670  0.63138196     0.08800
Cu272      Cu  0.00171116  0.65204777  0.66172209     0.44170
Cu273      Cu  0.99750752  0.69913599  0.67364948     0.41990
Cu274      Cu  0.99533440  0.66400898  0.70818937     0.43880
N275        N  0.00008885  0.63322865  0.68233701    -0.34820
N276        N  0.99722941  0.63753962  0.69937484    -0.29070
C277        C  0.99641850  0.62233844  0.70927187    -0.05170
C278        C  0.99890582  0.60779396  0.69786722     0.07040
C279        C  0.00133218  0.61520235  0.68094206     0.00840
H280        H  0.99458135  0.62195996  0.72372754     0.08490
H281        H  0.00369574  0.60799120  0.66849016     0.07570
N282        N  0.99539868  0.69145452  0.71361760    -0.36270
N283        N  0.99647637  0.70418967  0.70117146    -0.28450
C284        C  0.99691461  0.72038461  0.70933303    -0.03690
C285        C  0.99578738  0.71771604  0.72774593     0.04920
C286        C  0.99501223  0.69921632  0.72998191     0.03010
H287        H  0.99796504  0.73317002  0.70237807     0.08120
H288        H  0.99475098  0.69186427  0.74256609     0.06950
N289        N  0.50059572  0.18856970  0.64752716    -0.27430
N290        N  0.50239770  0.17127044  0.64360926    -0.35290
C291        C  0.50290096  0.16932682  0.62561378     0.00910
C292        C  0.50108544  0.18615360  0.61780197     0.06930
C293        C  0.49975299  0.19807807  0.63208532    -0.06170
H294        H  0.50428763  0.15655740  0.61869567     0.07600
H295        H  0.49861742  0.21260086  0.63136015     0.08800
Cu296      Cu  0.50333656  0.15088439  0.66274900     0.44170
Cu297      Cu  0.49955956  0.19831390  0.67374639     0.41990
Cu298      Cu  0.49592254  0.16403055  0.70877956     0.43880
N299        N  0.50140094  0.13263867  0.68386686    -0.34820
N300        N  0.49805616  0.13739896  0.70069698    -0.29070
C301        C  0.49697594  0.12248425  0.71098719    -0.05170
C302        C  0.49983967  0.10766571  0.70006640     0.07040
C303        C  0.50271298  0.11458503  0.68301101     0.00840
H304        H  0.49460960  0.12247581  0.72537267     0.08490
H305        H  0.50534791  0.10702216  0.67082590     0.07570
N306        N  0.49648907  0.19150856  0.71374181    -0.36270
N307        N  0.49823936  0.20399606  0.70112603    -0.28450
C308        C  0.49896419  0.22030893  0.70904342    -0.03690
C309        C  0.49730941  0.21794088  0.72745442     0.04920
C310        C  0.49591617  0.19952975  0.72996256     0.03010
H311        H  0.50052598  0.23295384  0.70192944     0.08120
H312        H  0.49505168  0.19241413  0.74265897     0.06950
N313        N  0.50057958  0.35271790  0.81155199    -0.27430
N314        N  0.49904847  0.35655061  0.82885546    -0.35290
C315        C  0.49896301  0.37450750  0.83098201     0.00910
C316        C  0.50036643  0.38249939  0.81420513     0.06930
C317        C  0.50147776  0.36824433  0.80214578    -0.06170
H318        H  0.49808374  0.38128522  0.84386639     0.07600
H319        H  0.50343027  0.36899452  0.78773236     0.08800
Cu320      Cu  0.49779766  0.33734650  0.84894603     0.44170
Cu321      Cu  0.50173085  0.32633340  0.80225330     0.41990
Cu322      Cu  0.49735487  0.29056538  0.83678035     0.43880
N323        N  0.49773109  0.31668847  0.86757966    -0.34820
N324        N  0.49741292  0.29938084  0.86336204    -0.29070
C325        C  0.49791718  0.28959380  0.87866790    -0.05170
C326        C  0.49889273  0.30141443  0.89308715     0.07040
C327        C  0.49851407  0.31843289  0.88554757     0.00840
H328        H  0.49799050  0.27501188  0.87924144     0.08490
H329        H  0.49870948  0.33120635  0.89258505     0.07570
N330        N  0.49939134  0.28604075  0.80920217    -0.36270
N331        N  0.50143271  0.29883025  0.79690793    -0.28450
C332        C  0.50255672  0.29113195  0.78054282    -0.03690
C333        C  0.50120260  0.27265827  0.78262605     0.04920
C334        C  0.49901562  0.26991375  0.80091675     0.03010
H335        H  0.50366856  0.29851285  0.76801861     0.08120
H336        H  0.49724476  0.25711876  0.80770836     0.06950
O337        O  0.47232028  0.99719197  0.69388152    -0.73090
O338        O  0.52549213  0.99497806  0.69451506    -0.74070
O339        O  0.49777952  0.96928731  0.69335684    -0.62690
O340        O  0.50016945  0.02298874  0.69531595    -0.71100
O341        O  0.49902247  0.02223279  0.72521645    -0.70650
O342        O  0.49790762  0.96786593  0.72318513    -0.61900
O343        O  0.52585032  0.99431406  0.72434219    -0.74410
O344        O  0.47102598  0.99555840  0.72359917    -0.73190
Cu345      Cu  0.49893681  0.99618912  0.69333396     1.04560
Cu346      Cu  0.49842631  0.99499768  0.72522667     1.04330
C347        C  0.46304593  0.99643494  0.70832011     0.93110
C348        C  0.53420640  0.99392677  0.70924248     0.92250
C349        C  0.49769533  0.96001372  0.70786020     0.84390
C350        C  0.49999807  0.03108398  0.71047485     0.90670
N351        N  0.99851651  0.19007750  0.86369351    -0.27430
N352        N  0.99699759  0.17280259  0.86787982    -0.35290
C353        C  0.99637327  0.17109109  0.88589283     0.00910
C354        C  0.99761138  0.18807116  0.89340276     0.06930
C355        C  0.99900135  0.19983613  0.87900693    -0.06170
H356        H  0.99515019  0.15840930  0.89300591     0.07600
H357        H  0.00009532  0.21437552  0.87960246     0.08800
Cu358      Cu  0.99626699  0.15217695  0.84906165     0.44170
Cu359      Cu  0.99951389  0.19922966  0.83722051     0.41990
Cu360      Cu  0.00135162  0.16424401  0.80237536     0.43880
N361        N  0.99763137  0.13342494  0.82841734    -0.34820
N362        N  0.00004337  0.13772333  0.81129850    -0.29070
C363        C  0.00084373  0.12248051  0.80146194    -0.05170
C364        C  0.99878695  0.10795414  0.81300400     0.07040
C365        C  0.99665430  0.11539355  0.82993221     0.00840
H366        H  0.00241054  0.12204444  0.78697600     0.08490
H367        H  0.99467981  0.10820339  0.84246932     0.07570
N368        N  0.00076519  0.19175793  0.79710959    -0.36270
N369        N  0.99993201  0.20440619  0.80967293    -0.28450
C370        C  0.99933427  0.22067117  0.80163916    -0.03690
C371        C  0.99987122  0.21808660  0.78322373     0.04920
C372        C  0.00077331  0.19965881  0.78078683     0.03010
H373        H  0.99859104  0.23342365  0.80868510     0.08120
H374        H  0.00131043  0.19250728  0.76808892     0.06950
N375        N  0.99983506  0.30126276  0.64781152    -0.27430
N376        N  0.00033498  0.31862595  0.64379829    -0.35290
C377        C  0.00133362  0.32053594  0.62583627     0.00910
C378        C  0.00172960  0.30357654  0.61809284     0.06930
C379        C  0.00048004  0.29164711  0.63241375    -0.06170
H380        H  0.00135407  0.33338646  0.61894822     0.07600
H381        H  0.00023819  0.27707332  0.63170000     0.08800
Cu382      Cu  0.99970600  0.33918487  0.66270246     0.44170
Cu383      Cu  0.99856714  0.29186483  0.67418577     0.41990
Cu384      Cu  0.99764813  0.32670289  0.70936290     0.43880
N385        N  0.99897318  0.35783989  0.68348043    -0.34820
N386        N  0.99807293  0.35334266  0.70069853    -0.29070
C387        C  0.99753644  0.36847974  0.71071975    -0.05170
C388        C  0.99816960  0.38310760  0.69918246     0.07040
C389        C  0.99910328  0.37591359  0.68205643     0.00840
H390        H  0.99672802  0.36880553  0.72527186     0.08490
H391        H  0.99970150  0.38327286  0.66947704     0.07570
N392        N  0.99761733  0.29912539  0.71436354    -0.36270
N393        N  0.99797544  0.28654600  0.70170438    -0.28450
C394        C  0.99808999  0.27021128  0.70962043    -0.03690
C395        C  0.99773334  0.27267947  0.72805536     0.04920
C396        C  0.99746180  0.29110802  0.73062785     0.03010
H397        H  0.99846903  0.25749330  0.70248272     0.08120
H398        H  0.99727382  0.29818073  0.74337970     0.06950
N399        N  0.19259083  0.99795593  0.86353536    -0.27430
N400        N  0.17544518  0.00066364  0.86720005    -0.35290
C401        C  0.17307642  0.00009477  0.88511950     0.00910
C402        C  0.18948404  0.99647072  0.89317043     0.06930
C403        C  0.20162849  0.99550293  0.87906070    -0.06170
H404        H  0.16031261  0.00230756  0.89169695     0.07600
H405        H  0.21588204  0.99275312  0.87997996     0.08800
Cu406      Cu  0.15580762  0.00302028  0.84756307     0.44170
Cu407      Cu  0.20207928  0.99679213  0.83738614     0.41990
Cu408      Cu  0.16781250  0.99146162  0.80190439     0.43880
N409        N  0.13731499  0.99984668  0.82693742    -0.34820
N410        N  0.14137758  0.99472401  0.81040243    -0.29070
C411        C  0.12602909  0.99218821  0.80105312    -0.05170
C412        C  0.11153666  0.99608086  0.81224830     0.07040
C413        C  0.11940701  0.00090541  0.82851217     0.00840
H414        H  0.12566444  0.98717378  0.78740610     0.08490
H415        H  0.11258736  0.00455565  0.84085970     0.07570
N416        N  0.19542222  0.99206980  0.79742089    -0.36270
N417        N  0.20761854  0.99445807  0.81017638    -0.28450
C418        C  0.22402063  0.99505563  0.80263577    -0.03690
C419        C  0.22218724  0.99262259  0.78423980     0.04920
C420        C  0.20383301  0.99098005  0.78142470     0.03010
H421        H  0.23621004  0.99770066  0.81008086     0.08120
H422        H  0.19706624  0.98921526  0.76863816     0.06950
N423        N  0.35597412  0.99829826  0.69980024    -0.27430
N424        N  0.35908075  0.00374045  0.68315961    -0.35290
C425        C  0.37687609  0.00529065  0.68064476     0.00910
C426        C  0.38565714  0.99999082  0.69627943     0.06930
C427        C  0.37184909  0.99594500  0.70825838    -0.06170
H428        H  0.38271509  0.00988451  0.66822990     0.07600
H429        H  0.37324480  0.99111933  0.72192840     0.08800
Cu430      Cu  0.33945928  0.00594831  0.66344266     0.44170
Cu431      Cu  0.33001365  0.99417098  0.70937286     0.41990
Cu432      Cu  0.29527237  0.99034525  0.67403575     0.43880
N433        N  0.31990688  0.00113568  0.64410416    -0.34820
N434        N  0.30373043  0.99478064  0.64783121    -0.29070
C435        C  0.29479644  0.99187492  0.63230256    -0.05170
C436        C  0.30605622  0.99637341  0.61813668     0.07040
C437        C  0.32174773  0.00243292  0.62615822     0.00840
H438        H  0.28130455  0.98647349  0.63138209     0.08490
H439        H  0.33369559  0.00739730  0.61950356     0.07570
N440        N  0.29014859  0.99063012  0.70146088    -0.36270
N441        N  0.30249768  0.99242904  0.71416620    -0.28450
C442        C  0.29424091  0.99339251  0.73025008    -0.03690
C443        C  0.27582428  0.99228001  0.72756946     0.04920
C444        C  0.27379782  0.99025444  0.70913557     0.03010
H445        H  0.30114093  0.99506606  0.74297741     0.08120
H446        H  0.26148005  0.98833777  0.70169185     0.06950
O447        O  0.97078881  0.99533381  0.81758943    -0.73090
O448        O  0.02398843  0.99541912  0.81946332    -0.74070
O449        O  0.99712739  0.02229696  0.81847279    -0.62690
O450        O  0.99753969  0.96835503  0.81827722    -0.71100
O451        O  0.99808147  0.96828032  0.78834469    -0.70650
O452        O  0.99892793  0.02264515  0.78860704    -0.61900
O453        O  0.02582197  0.99493452  0.78976995    -0.74410
O454        O  0.97114851  0.99583416  0.78773062    -0.73190
Cu455      Cu  0.99733474  0.99534727  0.81940396     1.04560
Cu456      Cu  0.99853477  0.99544071  0.78748487     1.04330
C457        C  0.96241416  0.99576074  0.80260591     0.93110
C458        C  0.03351760  0.99484220  0.80523256     0.92250
C459        C  0.99781536  0.03097114  0.80363361     0.84390
C460        C  0.99791998  0.95983566  0.80334126     0.90670
N461        N  0.19254276  0.49668719  0.64771074    -0.27430
N462        N  0.17511005  0.49567697  0.64457970    -0.35290
C463        C  0.17213537  0.49567374  0.62679317     0.00910
C464        C  0.18843653  0.49739025  0.61803134     0.06930
C465        C  0.20119037  0.49765014  0.63174924    -0.06170
H466        H  0.15897443  0.49421757  0.62085254     0.07600
H467        H  0.21561461  0.49876622  0.63023221     0.08800
Cu468      Cu  0.15570199  0.49569922  0.66423539     0.44170
Cu469      Cu  0.20251834  0.49662379  0.67398846     0.41990
Cu470      Cu  0.16726068  0.49615198  0.71027459     0.43880
N471        N  0.13681031  0.49577988  0.68438827    -0.34820
N472        N  0.14076244  0.49531717  0.70169572    -0.29070
C473        C  0.12535741  0.49410618  0.71118416    -0.05170
C474        C  0.11109472  0.49364556  0.69910659     0.07040
C475        C  0.11895288  0.49520131  0.68229315     0.00840
H476        H  0.12460851  0.49325819  0.72571783     0.08490
H477        H  0.11235377  0.49612328  0.66938274     0.07570
N478        N  0.19484672  0.49618816  0.71439806    -0.36270
N479        N  0.20736047  0.49601193  0.70170464    -0.28450
C480        C  0.22360360  0.49556881  0.70967098    -0.03690
C481        C  0.22124787  0.49534134  0.72819925     0.04920
C482        C  0.20282246  0.49602923  0.73063390     0.03010
H483        H  0.23625514  0.49537307  0.70247485     0.08120
H484        H  0.19556112  0.49691352  0.74319882     0.06950
N485        N  0.35768427  0.49363145  0.81128709    -0.27430
N486        N  0.36143249  0.49164496  0.82855124    -0.35290
C487        C  0.37932944  0.49160652  0.83070155     0.00910
C488        C  0.38742095  0.49377702  0.81399423     0.06930
C489        C  0.37315501  0.49511464  0.80197884    -0.06170
H490        H  0.38597909  0.49044584  0.84361900     0.07600
H491        H  0.37373087  0.49777743  0.78769661     0.08800
Cu492      Cu  0.34218877  0.49084392  0.84866663     0.44170
Cu493      Cu  0.33154555  0.49479682  0.80174198     0.41990
Cu494      Cu  0.29576784  0.49525709  0.83596783     0.43880
N495        N  0.32136606  0.49233785  0.86708619    -0.34820
N496        N  0.30423582  0.49380723  0.86259893    -0.29070
C497        C  0.29428144  0.49479047  0.87773588    -0.05170
C498        C  0.30578878  0.49391843  0.89239496     0.07040
C499        C  0.32282113  0.49251036  0.88511225     0.00840
H500        H  0.27986256  0.49662825  0.87799531     0.08490
H501        H  0.33539656  0.49181848  0.89240838     0.07570
N502        N  0.29141936  0.49608629  0.80832101    -0.36270
N503        N  0.30428912  0.49565427  0.79603854    -0.28450
C504        C  0.29679550  0.49569614  0.77955687    -0.03690
C505        C  0.27829351  0.49649273  0.78148048     0.04920
C506        C  0.27541712  0.49654754  0.79992620     0.03010
H507        H  0.30438254  0.49451971  0.76720921     0.08120
H508        H  0.26257348  0.49678121  0.80677307     0.06950
O509        O  0.00111247  0.52214531  0.69380867    -0.73090
O510        O  0.99803685  0.46832920  0.69427560    -0.74070
O511        O  0.97291523  0.49691917  0.69304343    -0.62690
O512        O  0.02601362  0.49368571  0.69497041    -0.71100
O513        O  0.02566928  0.49471152  0.72482694    -0.70650
O514        O  0.97135491  0.49657180  0.72289973    -0.61900
O515        O  0.99762571  0.46838219  0.72421495    -0.74410
O516        O  0.99927134  0.52281887  0.72367257    -0.73190
Cu517      Cu  0.99952795  0.49524883  0.69305296     1.04560
Cu518      Cu  0.99842893  0.49561957  0.72502810     1.04330
C519        C  0.00057754  0.53097405  0.70855204     0.93110
C520        C  0.99771165  0.45986760  0.70924380     0.92250
C521        C  0.96369503  0.49753292  0.70749435     0.84390
C522        C  0.03435617  0.49369105  0.70998700     0.90670
O523        O  0.52795885  0.49557551  0.79289484    -0.73090
O524        O  0.47335611  0.49560625  0.79297569    -0.74070
O525        O  0.50053665  0.52274992  0.79221064    -0.62690
O526        O  0.50072235  0.46836179  0.79311591    -0.71100
O527        O  0.50087839  0.46908016  0.82297141    -0.70650
O528        O  0.50098462  0.52296361  0.82210241    -0.61900
O529        O  0.47417027  0.49610829  0.82276403    -0.74410
O530        O  0.52735851  0.49589940  0.82267205    -0.73190
Cu531      Cu  0.50062178  0.49553850  0.79167499     1.04560
Cu532      Cu  0.50080943  0.49601723  0.82357714     1.04330
C533        C  0.53625544  0.49577322  0.80803871     0.93110
C534        C  0.46518716  0.49620746  0.80815742     0.92250
C535        C  0.50090495  0.53139119  0.80709899     0.84390
C536        C  0.50120943  0.46017180  0.80826647     0.90670
N537        N  0.50067264  0.63759454  0.19951074    -0.27430
N538        N  0.49913403  0.63351843  0.18224837    -0.35290
C539        C  0.49791081  0.61554451  0.18048877     0.00910
C540        C  0.49852477  0.60791695  0.19747307     0.06930
C541        C  0.50053571  0.62225549  0.20923045    -0.06170
H542        H  0.49693491  0.60856130  0.16772857     0.07600
H543        H  0.50155844  0.62160674  0.22376120     0.08800
Cu544      Cu  0.49872551  0.65245560  0.16178617     0.44170
Cu545      Cu  0.50224214  0.66394969  0.20864049     0.41990
Cu546      Cu  0.50203972  0.69930900  0.17396237     0.43880
N547        N  0.49905088  0.67321348  0.14316832    -0.34820
N548        N  0.50067414  0.69044399  0.14745976    -0.29070
C549        C  0.50072399  0.70034550  0.13223259    -0.05170
C550        C  0.49881761  0.68871877  0.11779291     0.07040
C551        C  0.49785948  0.67166556  0.12518325     0.00840
H552        H  0.50178478  0.71489222  0.13173443     0.08490
H553        H  0.49647262  0.65903674  0.11800618     0.07570
N554        N  0.50206588  0.70415240  0.20153012    -0.36270
N555        N  0.50216594  0.69137878  0.21400285    -0.28450
C556        C  0.50183547  0.69911375  0.23038220    -0.03690
C557        C  0.50152924  0.71756057  0.22806534     0.04920
C558        C  0.50167127  0.72034923  0.20968007     0.03010
H559        H  0.50174379  0.69183843  0.24302076     0.08120
H560        H  0.50142610  0.73317822  0.20273667     0.06950
N561        N  0.49885897  0.80142617  0.36301133    -0.27430
N562        N  0.49876934  0.81885608  0.36671331    -0.35290
C563        C  0.49964875  0.82112832  0.38463000     0.00910
C564        C  0.50056381  0.80433565  0.39266454     0.06930
C565        C  0.49976472  0.79210955  0.37857743    -0.06170
H566        H  0.49931615  0.83409775  0.39128353     0.07600
H567        H  0.50005924  0.77755274  0.37955991     0.08800
Cu568      Cu  0.49773324  0.83896477  0.34743639     0.44170
Cu569      Cu  0.49815744  0.79163196  0.33679632     0.41990
Cu570      Cu  0.49734812  0.82606228  0.30098162     0.43880
N571        N  0.49730650  0.85733783  0.32648027    -0.34820
N572        N  0.49706127  0.85274333  0.30928990    -0.29070
C573        C  0.49719447  0.86781087  0.29914325    -0.05170
C574        C  0.49747628  0.88257404  0.31058844     0.07040
C575        C  0.49767274  0.87538042  0.32777998     0.00840
H576        H  0.49772831  0.86791878  0.28458394     0.08490
H577        H  0.49821205  0.88275532  0.34035301     0.07570
N578        N  0.49790276  0.79846345  0.29652326    -0.36270
N579        N  0.49814580  0.78604576  0.30935396    -0.28450
C580        C  0.49856247  0.76962367  0.30165580    -0.03690
C581        C  0.49856675  0.77189680  0.28319844     0.04920
C582        C  0.49816456  0.79026760  0.28037214     0.03010
H583        H  0.49888213  0.75699434  0.30895284     0.08120
H584        H  0.49808954  0.79718239  0.26753313     0.06950
O585        O  0.52510280  0.68352513  0.00572101    -0.73090
O586        O  0.47179962  0.68352187  0.00558966    -0.74070
O587        O  0.49832422  0.68382446  0.97859495    -0.62690
O588        O  0.49830055  0.68350434  0.03248660    -0.71100
O589        O  0.49874180  0.71346939  0.03277103    -0.70650
O590        O  0.49885785  0.71377245  0.97851619    -0.61900
O591        O  0.47125358  0.71337182  0.00570078    -0.74410
O592        O  0.52602338  0.71338068  0.00582151    -0.73190
Cu593      Cu  0.49840364  0.68263450  0.00554504     1.04560
Cu594      Cu  0.49870831  0.71462514  0.00566408     1.04330
C595        C  0.53413851  0.69816987  0.00606888     0.93110
C596        C  0.46295533  0.69819630  0.00602864     0.92250
C597        C  0.49857488  0.69877326  0.97005978     0.84390
C598        C  0.49852766  0.69839453  0.04109648     0.90670
N599        N  0.19228379  0.85244695  0.00495230    -0.27430
N600        N  0.17641486  0.85595056  0.01207210    -0.35290
C601        C  0.17480863  0.87382578  0.01424176     0.00910
C602        C  0.19038826  0.88215689  0.00813933     0.06930
C603        C  0.20116162  0.86805825  0.00225124    -0.06170
H604        H  0.16285392  0.88034267  0.01937355     0.07600
H605        H  0.21408039  0.86891526  0.99568136     0.08800
Cu606      Cu  0.15660840  0.83666663  0.01611204     0.44170
Cu607      Cu  0.20065387  0.82644014  0.99938249     0.41990
Cu608      Cu  0.16680409  0.79076896  0.00502396     0.43880
N609        N  0.13720327  0.81676143  0.01332189    -0.34820
N610        N  0.14076283  0.79997358  0.00859211    -0.29070
C611        C  0.12516838  0.79109776  0.00594118    -0.05170
C612        C  0.11113099  0.80298450  0.00891790     0.07040
C613        C  0.11931389  0.81901465  0.01391285     0.00840
H614        H  0.12413164  0.77722792  0.00152105     0.08490
H615        H  0.11285078  0.83152328  0.01758487     0.07570
N616        N  0.19420939  0.78629562  0.00268516    -0.36270
N617        N  0.20632216  0.79913148  0.00019291    -0.28450
C618        C  0.22278503  0.79171358  0.00001119    -0.03690
C619        C  0.22101742  0.77334671  0.00285188     0.04920
C620        C  0.20268888  0.77038797  0.00423534     0.03010
H621        H  0.23502189  0.79927511  0.99791895     0.08120
H622        H  0.19602136  0.75764412  0.00670446     0.06950
N623        N  0.35573798  0.69161592  0.00333159    -0.27430
N624        N  0.35999527  0.67450419  0.00086279    -0.35290
C625        C  0.37798464  0.67302214  0.00043052     0.00910
C626        C  0.38552350  0.69000281  0.00267289     0.06930
C627        C  0.37092993  0.70146695  0.00457999    -0.06170
H628        H  0.38511338  0.66037909  0.99911097     0.07600
H629        H  0.37120102  0.71571013  0.00763934     0.08800
Cu630      Cu  0.34127846  0.65360487  0.00006226     0.44170
Cu631      Cu  0.32938668  0.70028557  0.00604849     0.41990
Cu632      Cu  0.29571049  0.66462928  0.01170471     0.43880
N633        N  0.32089164  0.63450508  0.00268021    -0.34820
N634        N  0.30427417  0.63846462  0.00750530    -0.29070
C635        C  0.29469467  0.62312092  0.00911012    -0.05170
C636        C  0.30579531  0.60871596  0.00493825     0.07040
C637        C  0.32231557  0.61653206  0.00102522     0.00840
H638        H  0.28095130  0.62260683  0.01378223     0.08490
H639        H  0.33464560  0.60958289  0.99764758     0.07570
N640        N  0.28989216  0.69186445  0.01080414    -0.36270
N641        N  0.30195511  0.70474091  0.00831090    -0.28450
C642        C  0.29341419  0.72063193  0.00690084    -0.03690
C643        C  0.27509818  0.71760526  0.00838584     0.04920
C644        C  0.27340814  0.69922052  0.01113393     0.03010
H645        H  0.30002744  0.73341552  0.00449671     0.08120
H646        H  0.26121508  0.69160816  0.01330108     0.06950
N647        N  0.99693120  0.85323002  0.19980982    -0.27430
N648        N  0.99827028  0.85727066  0.18251517    -0.35290
C649        C  0.99934828  0.87524788  0.18066410     0.00910
C650        C  0.99877071  0.88293635  0.19760250     0.06930
C651        C  0.99700041  0.86862558  0.20945513    -0.06170
H652        H  0.00033363  0.88220279  0.16788462     0.07600
H653        H  0.99618429  0.86933076  0.22399580     0.08800
Cu654      Cu  0.99877890  0.83831623  0.16208686     0.44170
Cu655      Cu  0.99605912  0.82679563  0.20904175     0.41990
Cu656      Cu  0.00091737  0.79159383  0.17435648     0.43880
N657        N  0.99916510  0.81758065  0.14346060    -0.34820
N658        N  0.00027187  0.80033157  0.14779682    -0.29070
C659        C  0.00001702  0.79039628  0.13259681    -0.05170
C660        C  0.99838249  0.80202162  0.11809994     0.07040
C661        C  0.99806187  0.81912137  0.12547413     0.00840
H662        H  0.00053699  0.77582147  0.13215882     0.08490
H663        H  0.99713189  0.83178934  0.11830107     0.07570
N664        N  0.99936523  0.78668555  0.20185743    -0.36270
N665        N  0.99732913  0.79930168  0.21431870    -0.28450
C666        C  0.99653751  0.79138540  0.23061449    -0.03690
C667        C  0.99815781  0.77300336  0.22823800     0.04920
C668        C  0.99994952  0.77045052  0.20991914     0.03010
H669        H  0.99495776  0.79849418  0.24324793     0.08120
H670        H  0.00148040  0.75773113  0.20294322     0.06950
N671        N  0.99894424  0.63771942  0.31120190    -0.27430
N672        N  0.99868178  0.63355785  0.32852168    -0.35290
C673        C  0.99792758  0.61554691  0.33027461     0.00910
C674        C  0.99747587  0.60795211  0.31325808     0.06930
C675        C  0.99840309  0.62239279  0.30146011    -0.06170
H676        H  0.99792703  0.60852699  0.34304883     0.07600
H677        H  0.99835029  0.62181644  0.28689054     0.08800
Cu678      Cu  0.99892673  0.65237785  0.34919391     0.44170
Cu679      Cu  0.99941589  0.66416390  0.30197420     0.41990
Cu680      Cu  0.99879089  0.69920554  0.33683482     0.43880
N681        N  0.99872564  0.67318971  0.36786010    -0.34820
N682        N  0.99868370  0.69045140  0.36338347    -0.29070
C683        C  0.99869483  0.70049730  0.37850052    -0.05170
C684        C  0.99872047  0.68893450  0.39310284     0.07040
C685        C  0.99874530  0.67176224  0.38591860     0.00840
H686        H  0.99880164  0.71508468  0.37882563     0.08490
H687        H  0.99890513  0.65916241  0.39327242     0.07570
N688        N  0.99893669  0.70432055  0.30934667    -0.36270
N689        N  0.99914508  0.69168929  0.29674105    -0.28450
C690        C  0.99912526  0.69965123  0.28044802    -0.03690
C691        C  0.99892860  0.71808762  0.28298588     0.04920
C692        C  0.99881323  0.72062212  0.30139782     0.03010
H693        H  0.99929798  0.69254411  0.26771529     0.08120
H694        H  0.99867236  0.73336422  0.30850333     0.06950
O695        O  0.97242843  0.80864834  0.00650167    -0.73090
O696        O  0.02563441  0.80725730  0.00581160    -0.74070
O697        O  0.99853137  0.80855448  0.97928273    -0.62690
O698        O  0.99911114  0.80719398  0.03308610    -0.71100
O699        O  0.99846964  0.77725318  0.03261680    -0.70650
O700        O  0.99803518  0.77868474  0.97815202    -0.61900
O701        O  0.02555143  0.77739220  0.00518721    -0.74410
O702        O  0.97085942  0.77891605  0.00547950    -0.73190
Cu703      Cu  0.99900052  0.80885142  0.00622399     1.04560
Cu704      Cu  0.99821606  0.77692659  0.00536485     1.04330
C705        C  0.96303761  0.79431161  0.00572212     0.93110
C706        C  0.03416765  0.79235509  0.00530396     0.92250
C707        C  0.99789794  0.79397330  0.97017068     0.84390
C708        C  0.99870748  0.79210932  0.04134798     0.90670
N709        N  0.19189127  0.63797853  0.50593920    -0.27430
N710        N  0.17562815  0.63433548  0.49972030    -0.35290
C711        C  0.17383147  0.61637770  0.49792873     0.00910
C712        C  0.18966100  0.60836650  0.50344051     0.06930
C713        C  0.20085093  0.62241391  0.50842070    -0.06170
H714        H  0.16176613  0.60962973  0.49333409     0.07600
H715        H  0.21450599  0.62141626  0.51333717     0.08800
Cu716      Cu  0.15619054  0.65389981  0.49542377     0.44170
Cu717      Cu  0.20106477  0.66408513  0.50998666     0.41990
Cu718      Cu  0.16805993  0.70023604  0.50420959     0.43880
N719        N  0.13756156  0.67458118  0.49746064    -0.34820
N720        N  0.14166320  0.69147235  0.50139965    -0.29070
C721        C  0.12633487  0.70081767  0.50391397    -0.05170
C722        C  0.11192780  0.68914627  0.50166104     0.07040
C723        C  0.11961254  0.67274822  0.49720831     0.00840
H724        H  0.12573410  0.71486768  0.50780018     0.08490
H725        H  0.11276309  0.66025121  0.49419556     0.07570
N726        N  0.19561308  0.70433196  0.50652772    -0.36270
N727        N  0.20745239  0.69130614  0.50909461    -0.28450
C728        C  0.22403253  0.69851802  0.50984731    -0.03690
C729        C  0.22268137  0.71699280  0.50731282     0.04920
C730        C  0.20440167  0.72014669  0.50545229     0.03010
H731        H  0.23602526  0.69073590  0.51234285     0.08120
H732        H  0.19795234  0.73302328  0.50319796     0.06950
N733        N  0.35743076  0.80119642  0.50802033    -0.27430
N734        N  0.36086438  0.81858874  0.50653434    -0.35290
C735        C  0.37867342  0.82123725  0.50627312     0.00910
C736        C  0.38716455  0.80476712  0.50831621     0.06930
C737        C  0.37319300  0.79226558  0.50907312    -0.06170
H738        H  0.38477323  0.83428118  0.50425837     0.07600
H739        H  0.37440584  0.77779034  0.51041752     0.08800
Cu740      Cu  0.34147766  0.83832458  0.50565676     0.44170
Cu741      Cu  0.33105428  0.79160941  0.50776359     0.41990
Cu742      Cu  0.29590610  0.82697683  0.49904886     0.43880
N743        N  0.32148441  0.85739476  0.50411766    -0.34820
N744        N  0.30448663  0.85356737  0.50080099    -0.29070
C745        C  0.29518566  0.86912024  0.49959634    -0.05170
C746        C  0.30707328  0.88337074  0.50214051     0.07040
C747        C  0.32351024  0.87529152  0.50539559     0.00840
H748        H  0.28092740  0.87000593  0.49686374     0.08490
H749        H  0.33606745  0.88175782  0.50877788     0.07570
N750        N  0.29120769  0.79948348  0.50182872    -0.36270
N751        N  0.30344394  0.78702834  0.50542460    -0.28450
C752        C  0.29511768  0.77100389  0.50721347    -0.03690
C753        C  0.27680562  0.77345839  0.50481619     0.04920
C754        C  0.27491500  0.79165824  0.50115205     0.03010
H755        H  0.30190080  0.75846253  0.51023660     0.08120
H756        H  0.26271849  0.79881366  0.49786560     0.06950
O757        O  0.00023499  0.68412573  0.47815374    -0.73090
O758        O  0.00034475  0.68363167  0.53203178    -0.74070
O759        O  0.97358919  0.68264346  0.50504070    -0.62690
O760        O  0.02682479  0.68493992  0.50523224    -0.71100
O761        O  0.02628956  0.71481779  0.50551703    -0.70650
O762        O  0.97160896  0.71235806  0.50526331    -0.61900
O763        O  0.99871918  0.71353811  0.53251484    -0.74410
O764        O  0.99895857  0.71406132  0.47819899    -0.73190
Cu765      Cu  0.00027997  0.68288203  0.50508389     1.04560
Cu766      Cu  0.99885674  0.71482258  0.50536292     1.04330
C767        C  0.99952038  0.69909385  0.46970566     0.93110
C768        C  0.99958317  0.69843471  0.54075785     0.92250
C769        C  0.96398497  0.69684072  0.50527535     0.84390
C770        C  0.03512482  0.69999905  0.50558280     0.90670
O771        O  0.47261685  0.77868433  0.50568197    -0.73090
O772        O  0.52720641  0.77876920  0.50452215    -0.74070
O773        O  0.50043383  0.77823011  0.53220865    -0.62690
O774        O  0.49931379  0.77898658  0.47784227    -0.71100
O775        O  0.49959692  0.80891271  0.47853200    -0.70650
O776        O  0.50102754  0.80818068  0.53227647    -0.61900
O777        O  0.52676383  0.80864382  0.50466093    -0.74410
O778        O  0.47338818  0.80853606  0.50625903    -0.73190
Cu779      Cu  0.49987000  0.77754777  0.50502686     1.04560
Cu780      Cu  0.50013759  0.80953103  0.50542772     1.04330
C781        C  0.46442891  0.79382709  0.50640963     0.93110
C782        C  0.53555193  0.79389377  0.50440976     0.92250
C783        C  0.50115616  0.79319196  0.54071823     0.84390
C784        C  0.49950812  0.79416528  0.46966970     0.90670
N785        N  0.49900987  0.18833097  0.36309886    -0.27430
N786        N  0.50086926  0.17098739  0.36673535    -0.35290
C787        C  0.50241402  0.16880699  0.38462314     0.00910
C788        C  0.50170290  0.18559692  0.39267927     0.06930
C789        C  0.49928067  0.19767557  0.37866028    -0.06170
H790        H  0.50357428  0.15587466  0.39125907     0.07600
H791        H  0.49800923  0.21217427  0.37968054     0.08800
Cu792      Cu  0.50112794  0.15090696  0.34739124     0.44170
Cu793      Cu  0.49671912  0.19808748  0.33699011     0.41990
Cu794      Cu  0.49850208  0.16416342  0.30095857     0.43880
N795        N  0.50043696  0.13270924  0.32627900    -0.34820
N796        N  0.49913560  0.13744093  0.30916205    -0.29070
C797        C  0.49875175  0.12245836  0.29891145    -0.05170
C798        C  0.49988800  0.10763720  0.31020331     0.07040
C799        C  0.50107412  0.11465376  0.32740873     0.00840
H800        H  0.49817546  0.12241840  0.28434906     0.08490
H801        H  0.50227428  0.10715792  0.33986373     0.07570
N802        N  0.49772592  0.19179909  0.29669329    -0.36270
N803        N  0.49660567  0.20400918  0.30965010    -0.28450
C804        C  0.49611860  0.22052412  0.30217229    -0.03690
C805        C  0.49698170  0.21858691  0.28367570     0.04920
C806        C  0.49816033  0.20024984  0.28066936     0.03010
H807        H  0.49562121  0.23301634  0.30968575     0.08120
H808        H  0.49917720  0.19352871  0.26776651     0.06950
N809        N  0.49807865  0.35302547  0.19877093    -0.27430
N810        N  0.50135856  0.35649788  0.18163400    -0.35290
C811        C  0.50195562  0.37439877  0.17915116     0.00910
C812        C  0.49844680  0.38276537  0.19542846     0.06930
C813        C  0.49635228  0.36876857  0.20767260    -0.06170
H814        H  0.50502068  0.38071811  0.16640087     0.07600
H815        H  0.49351552  0.36994910  0.22192319     0.08800
Cu816      Cu  0.50365846  0.33700926  0.16194108     0.44170
Cu817      Cu  0.49638807  0.32679621  0.20852675     0.41990
Cu818      Cu  0.50022921  0.29067905  0.17409733     0.43880
N819        N  0.50327810  0.31640968  0.14326447    -0.34820
N820        N  0.50186056  0.29916869  0.14749548    -0.29070
C821        C  0.50176507  0.28935199  0.13220761    -0.05170
C822        C  0.50346938  0.30107534  0.11775442     0.07040
C823        C  0.50410056  0.31809904  0.12529664     0.00840
H824        H  0.50069243  0.27480730  0.13165523     0.08490
H825        H  0.50467459  0.33086412  0.11827312     0.07570
N826        N  0.49923491  0.28649898  0.20175402    -0.36270
N827        N  0.49748350  0.29931800  0.21405389    -0.28450
C828        C  0.49719232  0.29165903  0.23048959    -0.03690
C829        C  0.49914777  0.27324753  0.22843557     0.04920
C830        C  0.50025072  0.27043077  0.21007449     0.03010
H831        H  0.49588605  0.29898250  0.24303322     0.08120
H832        H  0.50140163  0.25761815  0.20320151     0.06950
O833        O  0.52608900  0.99465436  0.28563210    -0.73090
O834        O  0.47147327  0.99566624  0.28693621    -0.74070
O835        O  0.49928239  0.02231039  0.28576178    -0.62690
O836        O  0.49833338  0.96787645  0.28643767    -0.71100
O837        O  0.49900751  0.96858604  0.31631722    -0.70650
O838        O  0.50057500  0.02227179  0.31565250    -0.61900
O839        O  0.47296999  0.99628632  0.31672595    -0.74410
O840        O  0.52616570  0.99461574  0.31549331    -0.73190
Cu841      Cu  0.49872748  0.99509711  0.28505736     1.04560
Cu842      Cu  0.49963973  0.99544056  0.31699440     1.04330
C843        C  0.53467893  0.99441405  0.30059242     0.93110
C844        C  0.46365659  0.99637742  0.30228513     0.92250
C845        C  0.50042447  0.03078057  0.30071268     0.84390
C846        C  0.49896940  0.95971032  0.30159864     0.90670
O847        O  0.52570484  0.27665439  0.00456831    -0.73090
O848        O  0.47099239  0.27636828  0.00618959    -0.74070
O849        O  0.49752294  0.27643432  0.97824286    -0.62690
O850        O  0.49904642  0.27605388  0.03254251    -0.71100
O851        O  0.49937758  0.30599832  0.03246843    -0.70650
O852        O  0.49787248  0.30637493  0.97867405    -0.61900
O853        O  0.47178488  0.30622618  0.00643311    -0.74410
O854        O  0.52494300  0.30646840  0.00483811    -0.73190
Cu855      Cu  0.49829395  0.27524421  0.00537789     1.04560
Cu856      Cu  0.49842821  0.30721573  0.00560481     1.04330
C857        C  0.53390222  0.29188599  0.00426046     0.93110
C858        C  0.46282044  0.29154369  0.00667270     0.92250
C859        C  0.49772328  0.29153683  0.96995524     0.84390
C860        C  0.49963017  0.29105027  0.04099655     0.90670
N861        N  0.19188817  0.35180005  0.50542299    -0.27430
N862        N  0.17549123  0.35515843  0.49950419    -0.35290
C863        C  0.17320393  0.37305042  0.49829105     0.00910
C864        C  0.18886864  0.38161975  0.50376324     0.06930
C865        C  0.20043171  0.36759082  0.50829103    -0.06170
H866        H  0.16080133  0.37937876  0.49406994     0.07600
H867        H  0.21375245  0.36856958  0.51395885     0.08800
Cu868      Cu  0.15599309  0.33566588  0.49536752     0.44170
Cu869      Cu  0.20139232  0.32568250  0.50932490     0.41990
Cu870      Cu  0.16747640  0.28994863  0.50403637     0.43880
N871        N  0.13714180  0.31518694  0.49690608    -0.34820
N872        N  0.14123441  0.29828126  0.50061357    -0.29070
C873        C  0.12597451  0.28872413  0.50272149    -0.05170
C874        C  0.11153555  0.30022188  0.50006805     0.07040
C875        C  0.11920376  0.31688029  0.49647522     0.00840
H876        H  0.12557174  0.27478662  0.50695141     0.08490
H877        H  0.11222528  0.32950925  0.49441891     0.07570
N878        N  0.19472364  0.28544561  0.50689074    -0.36270
N879        N  0.20700337  0.29816321  0.50916026    -0.28450
C880        C  0.22329673  0.29034703  0.50991058    -0.03690
C881        C  0.22115316  0.27184448  0.50813793     0.04920
C882        C  0.20284506  0.26931915  0.50601611     0.03010
H883        H  0.23583963  0.29763566  0.51122915     0.08120
H884        H  0.19587157  0.25688941  0.50305480     0.06950
N885        N  0.35790848  0.19120086  0.51014540    -0.27430
N886        N  0.36171095  0.17407240  0.51311184    -0.35290
C887        C  0.37963789  0.17202651  0.51328840     0.00910
C888        C  0.38756012  0.18870023  0.51043317     0.06930
C889        C  0.37333398  0.20056179  0.50838740    -0.06170
H890        H  0.38643173  0.15921506  0.51476250     0.07600
H891        H  0.37402766  0.21468385  0.50483275     0.08800
Cu892      Cu  0.34234488  0.15400586  0.51449627     0.44170
Cu893      Cu  0.33181529  0.20020504  0.50698621     0.41990
Cu894      Cu  0.29707779  0.16525960  0.50112015     0.43880
N895        N  0.32215262  0.13509122  0.51077696    -0.34820
N896        N  0.30576720  0.13889842  0.50506528    -0.29070
C897        C  0.29670193  0.12334008  0.50250499    -0.05170
C898        C  0.30804668  0.10908622  0.50661943     0.07040
C899        C  0.32391559  0.11714536  0.51216810     0.00840
H900        H  0.28303768  0.12244905  0.49757952     0.08490
H901        H  0.33595386  0.11057711  0.51693771     0.07570
N902        N  0.29221640  0.19289287  0.50109026    -0.36270
N903        N  0.30471084  0.20536081  0.50357615    -0.28450
C904        C  0.29687429  0.22165040  0.50432819    -0.03690
C905        C  0.27854816  0.21945484  0.50195425     0.04920
C906        C  0.27609859  0.20100993  0.50009641     0.03010
H907        H  0.30400935  0.23395409  0.50744031     0.08120
H908        H  0.26343986  0.19394767  0.49866297     0.06950
O909        O  0.99925099  0.27772495  0.53280477    -0.73090
O910        O  0.99895612  0.27765914  0.47836985    -0.74070
O911        O  0.02623106  0.27817086  0.50544351    -0.62690
O912        O  0.97184765  0.27744517  0.50582530    -0.71100
O913        O  0.97208649  0.30737777  0.50665848    -0.70650
O914        O  0.02528120  0.30800306  0.50456445    -0.61900
O915        O  0.99752410  0.30757589  0.47858984    -0.74410
O916        O  0.99971889  0.30765432  0.53239557    -0.73190
Cu917      Cu  0.99907126  0.27662265  0.50557422     1.04560
Cu918      Cu  0.99864227  0.30862183  0.50550825     1.04330
C919        C  0.99963180  0.29281766  0.54113051     0.93110
C920        C  0.99807147  0.29269080  0.46998216     0.92250
C921        C  0.03430219  0.29342859  0.50516144     0.84390
C922        C  0.96351623  0.29249460  0.50679099     0.90670
O923        O  0.28007797  0.99612370  0.53257817    -0.73090
O924        O  0.28054398  0.99587890  0.47787098    -0.74070
O925        O  0.28015297  0.96875545  0.50511793    -0.62690
O926        O  0.28053525  0.02364257  0.50506202    -0.71100
O927        O  0.31026942  0.02278314  0.50542867    -0.70650
O928        O  0.30992141  0.96939423  0.50528888    -0.61900
O929        O  0.31030672  0.99592443  0.47876234    -0.74410
O930        O  0.30984124  0.99588210  0.53221146    -0.73190
Cu931      Cu  0.27917409  0.99617931  0.50520151     1.04560
Cu932      Cu  0.31098972  0.99606176  0.50548598     1.04330
C933        C  0.29509754  0.99570638  0.54099115     0.93110
C934        C  0.29572616  0.99520325  0.46977743     0.92250
C935        C  0.29524443  0.96048856  0.50477236     0.84390
C936        C  0.29570885  0.03183654  0.50501489     0.90670
N937        N  0.19171741  0.13811317  0.00662100    -0.27430
N938        N  0.17457099  0.13385420  0.00465585    -0.35290
C939        C  0.17284124  0.11583787  0.00521026     0.00910
C940        C  0.18968238  0.10839428  0.00784280     0.06930
C941        C  0.20139027  0.12288932  0.00841670    -0.06170
H942        H  0.16025582  0.10871472  0.00352272     0.07600
H943        H  0.21581590  0.12242401  0.01022515     0.08800
Cu944      Cu  0.15417115  0.15264841  0.00169217     0.44170
Cu945      Cu  0.20078117  0.16448455  0.00698707     0.41990
Cu946      Cu  0.16644630  0.19949317  0.00159207     0.43880
N947        N  0.13564742  0.17349662  0.00078988    -0.34820
N948        N  0.14005401  0.19075273  0.00094864    -0.29070
C949        C  0.12498045  0.20075383  0.00168121    -0.05170
C950        C  0.11031732  0.18918771  0.00182803     0.07040
C951        C  0.11767762  0.17203215  0.00131753     0.00840
H952        H  0.12489120  0.21525873  0.00301326     0.08490
H953        H  0.11047681  0.15934816  0.00181449     0.07570
N954        N  0.19368595  0.20447607  0.00413749    -0.36270
N955        N  0.20602520  0.19188127  0.00646526    -0.28450
C956        C  0.22218346  0.19981010  0.00810788    -0.03690
C957        C  0.21992697  0.21828749  0.00688117     0.04920
C958        C  0.20168857  0.22072402  0.00411123     0.03010
H959        H  0.23468248  0.19262913  0.01009584     0.08120
H960        H  0.19466767  0.23323369  0.00172649     0.06950
N961        N  0.35639721  0.30105656  0.00643111    -0.27430
N962        N  0.35998395  0.31776611  0.00137616    -0.35290
C963        C  0.37789137  0.31987678  0.00032589     0.00910
C964        C  0.38602004  0.30381826  0.00528244     0.06930
C965        C  0.37194603  0.29209712  0.00879121    -0.06170
H966        H  0.38440760  0.33222449  0.99616515     0.07600
H967        H  0.37293663  0.27820816  0.01315290     0.08800
Cu968      Cu  0.34051923  0.33750576  0.99771538     0.44170
Cu969      Cu  0.33046758  0.29157345  0.00997422     0.41990
Cu970      Cu  0.29463423  0.32527186  0.00583478     0.43880
N971        N  0.31968971  0.35609922  0.99908777    -0.34820
N972        N  0.30284196  0.35174807  0.00263485    -0.29070
C973        C  0.29308986  0.36692575  0.00451704    -0.05170
C974        C  0.30435562  0.38163391  0.00187555     0.07040
C975        C  0.32110438  0.37413087  0.99849399     0.00840
H976        H  0.27913645  0.36707329  0.00852287     0.08490
H977        H  0.33360804  0.38130386  0.99639220     0.07570
N978        N  0.29041859  0.29776146  0.00795625    -0.36270
N979        N  0.30328205  0.28562505  0.00982032    -0.28450
C980        C  0.29583213  0.26911824  0.01056527    -0.03690
C981        C  0.27738604  0.27090932  0.00877464     0.04920
C982        C  0.27447891  0.28928154  0.00734268     0.03010
H983        H  0.30341900  0.25687415  0.01253730     0.08120
H984        H  0.26168548  0.29600954  0.00568029     0.06950
N985        N  0.14044330  0.99182022  0.20118778    -0.27430
N986        N  0.13642233  0.98881555  0.18413203    -0.35290
C987        C  0.11848212  0.98845521  0.18232874     0.00910
C988        C  0.11066052  0.99149679  0.19903973     0.06930
C989        C  0.12513109  0.99365951  0.21068365    -0.06170
H990        H  0.11161645  0.98665634  0.16959872     0.07600
H991        H  0.12478900  0.99727195  0.22476535     0.08800
Cu992      Cu  0.15537168  0.98775679  0.16366611     0.44170
Cu993      Cu  0.16670168  0.99425928  0.21010017     0.41990
Cu994      Cu  0.20128738  0.99825355  0.17508199     0.43880
N995        N  0.17567825  0.99080605  0.14475281    -0.34820
N996        N  0.19247313  0.99499114  0.14879450    -0.29070
C997        C  0.20191362  0.99703317  0.13344065    -0.05170
C998        C  0.19048293  0.99387207  0.11901902     0.07040
C999        C  0.17396259  0.99008740  0.12676474     0.00840
H1000       H  0.21579929  0.00130355  0.13292594     0.08490
H1001       H  0.16146788  0.98739932  0.11978999     0.07570
N1002       N  0.20642815  0.99849972  0.20252987    -0.36270
N1003       N  0.19399193  0.99658639  0.21510947    -0.28450
C1004       C  0.20197834  0.99610054  0.23133553    -0.03690
C1005       C  0.22033998  0.99813971  0.22894652     0.04920
C1006       C  0.22263473  0.99945131  0.21047008     0.03010
H1007       H  0.19485225  0.99361854  0.24376364     0.08120
H1008       H  0.23522596  0.00073335  0.20327438     0.06950
N1009       N  0.35705638  0.99796152  0.31196049    -0.27430
N1010       N  0.36048386  0.99493285  0.32914760    -0.35290
C1011       C  0.37833307  0.99424798  0.33160498     0.00910
C1012       C  0.38673142  0.99749195  0.31525338     0.06930
C1013       C  0.37274816  0.99951030  0.30302506    -0.06170
H1014       H  0.38454056  0.99114859  0.34437204     0.07600
H1015       H  0.37389857  0.00203712  0.28871086     0.08800
Cu1016     Cu  0.34094216  0.99273556  0.34884695     0.44170
Cu1017     Cu  0.33099999  0.99899586  0.30199865     0.41990
Cu1018     Cu  0.29495759  0.99151745  0.33569643     0.43880
N1019       N  0.31994841  0.99251282  0.36711111    -0.34820
N1020       N  0.30284341  0.99182061  0.36245127    -0.29070
C1021       C  0.29264301  0.99164994  0.37745737    -0.05170
C1022       C  0.30396606  0.99245556  0.39232428     0.07040
C1023       C  0.32115311  0.99292348  0.38512444     0.00840
H1024       H  0.27817202  0.99049959  0.37738233     0.08490
H1025       H  0.33369891  0.99349486  0.39248346     0.07570
N1026       N  0.29104934  0.99355128  0.30812842    -0.36270
N1027       N  0.30380351  0.99664038  0.29608352    -0.28450
C1028       C  0.29624985  0.99784955  0.27966056    -0.03690
C1029       C  0.27789718  0.99518235  0.28141680     0.04920
C1030       C  0.27512288  0.99265861  0.29966796     0.03010
H1031       H  0.30361311  0.00108801  0.26753619     0.08120
H1032       H  0.26237846  0.99049888  0.30637018     0.06950
N1033       N  0.99738782  0.13741247  0.20043940    -0.27430
N1034       N  0.99875013  0.13296677  0.18324369    -0.35290
C1035       C  0.99905351  0.11490598  0.18180647     0.00910
C1036       C  0.99782056  0.10769121  0.19890462     0.06930
C1037       C  0.99677830  0.12226681  0.21043813    -0.06170
H1038       H  0.99995592  0.10756971  0.16923472     0.07600
H1039       H  0.99558085  0.12190500  0.22496416     0.08800
Cu1040     Cu  0.99971054  0.15163891  0.16250551     0.44170
Cu1041     Cu  0.99638908  0.16394424  0.20916189     0.41990
Cu1042     Cu  0.99744192  0.19886801  0.17430344     0.43880
N1043       N  0.99924486  0.17231425  0.14374238    -0.34820
N1044       N  0.99803419  0.18961076  0.14790601    -0.29070
C1045       C  0.99763128  0.19936559  0.13259019    -0.05170
C1046       C  0.99885345  0.18758698  0.11821074     0.07040
C1047       C  0.99980765  0.17059184  0.12574037     0.00840
H1048       H  0.99679756  0.21392126  0.13198471     0.08490
H1049       H  0.00077570  0.15788154  0.11864458     0.07570
N1050       N  0.99693304  0.20407718  0.20179795    -0.36270
N1051       N  0.99625425  0.19141883  0.21435038    -0.28450
C1052       C  0.99591701  0.19929179  0.23065816    -0.03690
C1053       C  0.99631870  0.21777743  0.22827134     0.04920
C1054       C  0.99717435  0.22033724  0.20983274     0.03010
H1055       H  0.99587995  0.19203700  0.24330140     0.08120
H1056       H  0.99785203  0.23308982  0.20277311     0.06950
N1057       N  0.99829093  0.35348457  0.31095090    -0.27430
N1058       N  0.99833614  0.35772358  0.32824676    -0.35290
C1059       C  0.99913919  0.37573891  0.32991856     0.00910
C1060       C  0.99972288  0.38321591  0.31286422     0.06930
C1061       C  0.99894611  0.36875023  0.30112294    -0.06170
H1062       H  0.99925570  0.38285886  0.34264202     0.07600
H1063       H  0.99927323  0.36925867  0.28655341     0.08800
Cu1064     Cu  0.99776001  0.33888934  0.34886898     0.44170
Cu1065     Cu  0.99827583  0.32700745  0.30196975     0.41990
Cu1066     Cu  0.99902466  0.29184712  0.33690068     0.43880
N1067       N  0.99778940  0.31819045  0.36763375    -0.34820
N1068       N  0.99859924  0.30088958  0.36340996    -0.29070
C1069       C  0.99855367  0.29106827  0.37869909    -0.05170
C1070       C  0.99739328  0.30280909  0.39314005     0.07040
C1071       C  0.99704807  0.31985805  0.38563815     0.00840
H1072       H  0.99897699  0.27649283  0.37924660     0.08490
H1073       H  0.99636843  0.33257548  0.39275270     0.07570
N1074       N  0.99904373  0.28683245  0.30933178    -0.36270
N1075       N  0.99903623  0.29952928  0.29678993    -0.28450
C1076       C  0.99928836  0.29169275  0.28045811    -0.03690
C1077       C  0.99949895  0.27320786  0.28281758     0.04920
C1078       C  0.99912833  0.27058939  0.30125942     0.03010
H1079       H  0.99888382  0.29895020  0.26781965     0.08120
H1080       H  0.99898320  0.25780818  0.30829574     0.06950
O1081       O  0.02516519  0.99505536  0.22183273    -0.73090
O1082       O  0.97049784  0.99559456  0.22373611    -0.74070
O1083       O  0.99746208  0.96806023  0.22266716    -0.62690
O1084       O  0.99817617  0.02239763  0.22338536    -0.71100
O1085       O  0.99691541  0.02264285  0.19347078    -0.70650
O1086       O  0.99719764  0.96867571  0.19274952    -0.61900
O1087       O  0.97036231  0.99572376  0.19386993    -0.74410
O1088       O  0.02357492  0.99579223  0.19209833    -0.73190
Cu1089     Cu  0.99785597  0.99522441  0.22402980     1.04560
Cu1090     Cu  0.99695486  0.99568226  0.19208949     1.04330
C1091       C  0.03296562  0.99562437  0.20643458     0.93110
C1092       C  0.96188066  0.99602451  0.20880343     0.92250
C1093       C  0.99743460  0.95986500  0.20752794     0.84390
C1094       C  0.99759314  0.03099769  0.20848478     0.90670
O1095       O  0.18535360  0.02347249  0.00535801    -0.73090
O1096       O  0.18290222  0.97007466  0.00562744    -0.74070
O1097       O  0.18337901  0.99710017  0.03212433    -0.62690
O1098       O  0.18499250  0.99625909  0.97858591    -0.71100
O1099       O  0.21476279  0.99502846  0.97889248    -0.70650
O1100       O  0.21305984  0.99579349  0.03348258    -0.61900
O1101       O  0.21248944  0.96804303  0.00637141    -0.74410
O1102       O  0.21517097  0.02277525  0.00600332    -0.73190
Cu1103     Cu  0.18323862  0.99678448  0.00535513     1.04560
Cu1104     Cu  0.21501034  0.99536438  0.00620422     1.04330
C1105       C  0.20042944  0.03165510  0.00602983     0.93110
C1106       C  0.19702039  0.96041110  0.00590715     0.92250
C1107       C  0.19779737  0.99684565  0.04139164     0.84390
C1108       C  0.19992598  0.99525013  0.97017822     0.90670
O1109       O  0.97015789  0.21085783  0.00574663    -0.73090
O1110       O  0.02475603  0.21209775  0.00601550    -0.74070
O1111       O  0.99763482  0.21177379  0.97870402    -0.62690
O1112       O  0.99718685  0.21174218  0.03295573    -0.71100
O1113       O  0.99840831  0.18180900  0.03281020    -0.70650
O1114       O  0.99785530  0.18180893  0.97879963    -0.61900
O1115       O  0.02468671  0.18220982  0.00565486    -0.74410
O1116       O  0.97146021  0.18104653  0.00606760    -0.73190
Cu1117     Cu  0.99740926  0.21273851  0.00582482     1.04560
Cu1118     Cu  0.99810990  0.18074787  0.00580286     1.04330
C1119       C  0.96224503  0.19550033  0.00621082     0.93110
C1120       C  0.03325269  0.19708326  0.00614486     0.92250
C1121       C  0.99777836  0.19676481  0.97027589     0.84390
C1122       C  0.99782775  0.19673138  0.04137098     0.90670
N1123       N  0.19127505  0.49865145  0.36209755    -0.27430
N1124       N  0.17473148  0.50451537  0.36466210    -0.35290
C1125       C  0.17137030  0.50523119  0.38241803     0.00910
C1126       C  0.18642353  0.49916492  0.39157708     0.06930
C1127       C  0.19890122  0.49538751  0.37822285    -0.06170
H1128       H  0.15884161  0.50989180  0.38808631     0.07600
H1129       H  0.21235624  0.49018076  0.38008133     0.08800
Cu1130     Cu  0.15665034  0.50871068  0.34392878     0.44170
Cu1131     Cu  0.20178030  0.49478910  0.33652424     0.41990
Cu1132     Cu  0.16846795  0.49228254  0.29983738     0.43880
N1133       N  0.13819359  0.50458868  0.32350956    -0.34820
N1134       N  0.14208440  0.49759110  0.30761084    -0.29070
C1135       C  0.12660321  0.49433111  0.29868757    -0.05170
C1136       C  0.11237352  0.49932180  0.30968054     0.07040
C1137       C  0.12030843  0.50608513  0.32511163     0.00840
H1138       H  0.12573825  0.48810467  0.28552696     0.08490
H1139       H  0.11362422  0.51135275  0.33691707     0.07570
N1140       N  0.19624130  0.49108242  0.29625569    -0.36270
N1141       N  0.20816071  0.49236617  0.30942743    -0.28450
C1142       C  0.22478132  0.49283004  0.30231827    -0.03690
C1143       C  0.22338454  0.49152038  0.28374520     0.04920
C1144       C  0.20504544  0.49055583  0.28044385     0.03010
H1145       H  0.23679784  0.49504644  0.31017008     0.08120
H1146       H  0.19853189  0.49005422  0.26741686     0.06950
N1147       N  0.35715384  0.49709674  0.19739080    -0.27430
N1148       N  0.36026130  0.49283654  0.18041823    -0.35290
C1149       C  0.37802763  0.49172817  0.17767210     0.00910
C1150       C  0.38687310  0.49609278  0.19353275     0.06930
C1151       C  0.37308535  0.49915023  0.20585636    -0.06170
H1152       H  0.38375330  0.48772658  0.16503011     0.07600
H1153       H  0.37452413  0.50277967  0.21988082     0.08800
Cu1154     Cu  0.34075047  0.49020296  0.16084253     0.44170
Cu1155     Cu  0.33107388  0.49905275  0.20761632     0.41990
Cu1156     Cu  0.29514340  0.49147036  0.17359032     0.43880
N1157       N  0.32014982  0.49086442  0.14225514    -0.34820
N1158       N  0.30300149  0.49103218  0.14683515    -0.29070
C1159       C  0.29289955  0.49194728  0.13178930    -0.05170
C1160       C  0.30439785  0.49259417  0.11716231     0.07040
C1161       C  0.32152618  0.49185323  0.12425498     0.00840
H1162       H  0.27836917  0.49257401  0.13154956     0.08490
H1163       H  0.33407234  0.49220379  0.11688395     0.07570
N1164       N  0.29097181  0.49436115  0.20104301    -0.36270
N1165       N  0.30358709  0.49744372  0.21325630    -0.28450
C1166       C  0.29573053  0.49859798  0.22956521    -0.03690
C1167       C  0.27733292  0.49634908  0.22747606     0.04920
C1168       C  0.27490466  0.49343767  0.20923728     0.03010
H1169       H  0.30289552  0.50078156  0.24206590     0.08120
H1170       H  0.26251356  0.49019172  0.20236874     0.06950
O1171       O  0.99895353  0.52283071  0.28666705    -0.73090
O1172       O  0.99911311  0.46831424  0.28663579    -0.74070
O1173       O  0.97179433  0.49524576  0.28770840    -0.62690
O1174       O  0.02636835  0.49568274  0.28576082    -0.71100
O1175       O  0.02674234  0.49636029  0.31558268    -0.70650
O1176       O  0.97340561  0.49446617  0.31746852    -0.61900
O1177       O  0.00108563  0.46864346  0.31648537    -0.74410
O1178       O  0.99899207  0.52237863  0.31657216    -0.73190
Cu1179     Cu  0.99902862  0.49555504  0.28556525     1.04560
Cu1180     Cu  0.00010328  0.49549954  0.31747834     1.04330
C1181       C  0.99869079  0.53112604  0.30176767     0.93110
C1182       C  0.00023855  0.45996712  0.30167021     0.92250
C1183       C  0.96403517  0.49437971  0.30309384     0.84390
C1184       C  0.03514988  0.49594023  0.30059616     0.90670
O1185       O  0.31209084  0.52167484  0.00565234    -0.73090
O1186       O  0.31161072  0.46846909  0.00505874    -0.74070
O1187       O  0.31207246  0.49560663  0.97838447    -0.62690
O1188       O  0.31111928  0.49487420  0.03225592    -0.71100
O1189       O  0.28125003  0.49468099  0.03180500    -0.70650
O1190       O  0.28225793  0.49560851  0.97761763    -0.61900
O1191       O  0.28190248  0.46767486  0.00453949    -0.74410
O1192       O  0.28239921  0.52276445  0.00532427    -0.73190
Cu1193     Cu  0.31265843  0.49511766  0.00531125     1.04560
Cu1194     Cu  0.28081370  0.49518778  0.00474351     1.04330
C1195       C  0.29766734  0.53083374  0.00599916     0.93110
C1196       C  0.29704319  0.45944915  0.00516766     0.92250
C1197       C  0.29738895  0.49601758  0.96948719     0.84390
C1198       C  0.29605858  0.49465912  0.04049487     0.90670
O1199       O  0.18165663  0.49728272  0.53189903    -0.73090
O1200       O  0.18065308  0.49590052  0.47814133    -0.74070
O1201       O  0.17979166  0.46966897  0.50571093    -0.62690
O1202       O  0.18234919  0.52342346  0.50437402    -0.71100
O1203       O  0.21219401  0.52227953  0.50407169    -0.70650
O1204       O  0.20940945  0.46777939  0.50516780    -0.61900
O1205       O  0.21036214  0.49456264  0.47738711    -0.74410
O1206       O  0.21138941  0.49554260  0.53180155    -0.73190
Cu1207     Cu  0.18014025  0.49659470  0.50504653     1.04560
Cu1208     Cu  0.21192861  0.49497376  0.50458060     1.04330
C1209       C  0.19656677  0.49670765  0.54042838     0.93110
C1210       C  0.19527531  0.49514870  0.46914909     0.92250
C1211       C  0.19399828  0.46007166  0.50571564     0.84390
C1212       C  0.19757889  0.53133437  0.50406655     0.90670
O1213       O  0.47343530  0.18021085  0.50500105    -0.73090
O1214       O  0.52672278  0.17973426  0.50511138    -0.74070
O1215       O  0.50030106  0.17994740  0.53201723    -0.62690
O1216       O  0.50034876  0.18009478  0.47822573    -0.71100
O1217       O  0.50003169  0.21004237  0.47801847    -0.70650
O1218       O  0.50064957  0.20989192  0.53237895    -0.61900
O1219       O  0.52764809  0.20952587  0.50477366    -0.74410
O1220       O  0.47315694  0.21008543  0.50540917    -0.73190
Cu1221     Cu  0.50013757  0.17903559  0.50511626     1.04560
Cu1222     Cu  0.50036246  0.21101084  0.50518121     1.04330
C1223       C  0.46475273  0.19501323  0.50495543     0.93110
C1224       C  0.53577810  0.19430345  0.50458264     0.92250
C1225       C  0.50080904  0.19479405  0.54068864     0.84390
C1226       C  0.50032316  0.19500048  0.46962844     0.90670
O1227       O  0.52705367  0.49495250  0.19366227    -0.73090
O1228       O  0.47375481  0.49656602  0.19161250    -0.74070
O1229       O  0.50090002  0.52267990  0.19303506    -0.62690
O1230       O  0.49955015  0.46902320  0.19218534    -0.71100
O1231       O  0.49857482  0.46806167  0.22201249    -0.70650
O1232       O  0.50016267  0.52261063  0.22295168    -0.61900
O1233       O  0.47205950  0.49618276  0.22134747    -0.74410
O1234       O  0.52663026  0.49450697  0.22352755    -0.73190
Cu1235     Cu  0.50040640  0.49583987  0.19168519     1.04560
Cu1236     Cu  0.49934044  0.49533447  0.22359083     1.04330
C1237       C  0.53537756  0.49423545  0.20868820     0.93110
C1238       C  0.46429360  0.49668968  0.20595226     0.92250
C1239       C  0.50044034  0.53114652  0.20797992     0.84390
C1240       C  0.49874452  0.45997174  0.20679234     0.90670
N1241       N  0.64190939  0.49582812  0.20027710    -0.27430
N1242       N  0.63795707  0.49658129  0.18295439    -0.35290
C1243       C  0.62007207  0.49602906  0.18088952     0.00910
C1244       C  0.61220730  0.49422552  0.19768946     0.06930
C1245       C  0.62649244  0.49449074  0.20974064    -0.06170
H1246       H  0.61343579  0.49710819  0.16800156     0.07600
H1247       H  0.62575074  0.49339906  0.22426035     0.08800
Cu1248     Cu  0.65676089  0.49662160  0.16253766     0.44170
Cu1249     Cu  0.66833818  0.49635747  0.20934523     0.41990
Cu1250     Cu  0.70313484  0.49555369  0.17335816     0.43880
N1251       N  0.67675422  0.49538686  0.14333199    -0.34820
N1252       N  0.69404661  0.49566354  0.14710630    -0.29070
C1253       C  0.70347783  0.49581567  0.13163244    -0.05170
C1254       C  0.69145341  0.49531901  0.11724346     0.07040
C1255       C  0.67463508  0.49495097  0.12544187     0.00840
H1256       H  0.71792882  0.49670574  0.13125313     0.08490
H1257       H  0.66162590  0.49443212  0.11896663     0.07570
N1258       N  0.70823824  0.49562598  0.20069449    -0.36270
N1259       N  0.69597559  0.49641529  0.21357412    -0.28450
C1260       C  0.70437800  0.49667255  0.22960062    -0.03690
C1261       C  0.72277797  0.49604988  0.22669584     0.04920
C1262       C  0.72464736  0.49512116  0.20818027     0.03010
H1263       H  0.69755811  0.49721466  0.24246974     0.08120
H1264       H  0.73687467  0.49356860  0.20051285     0.06950
N1265       N  0.85688933  0.49655350  0.30995714    -0.27430
N1266       N  0.86121875  0.50071504  0.32672150    -0.35290
C1267       C  0.87920457  0.50123323  0.32816605     0.00910
C1268       C  0.88665703  0.49732327  0.31151383     0.06930
C1269       C  0.87204744  0.49430917  0.30029208    -0.06170
H1270       H  0.88637955  0.50391801  0.34056738     0.07600
H1271       H  0.87228452  0.49002706  0.28637906     0.08800
Cu1272     Cu  0.84271533  0.50413256  0.34739515     0.44170
Cu1273     Cu  0.83051388  0.49365233  0.30133265     0.41990
Cu1274     Cu  0.79625331  0.49902340  0.33615075     0.43880
N1275       N  0.82225382  0.50381610  0.36642701    -0.34820
N1276       N  0.80515208  0.50147651  0.36230541    -0.29070
C1277       C  0.79546960  0.50003483  0.37754007    -0.05170
C1278       C  0.80703409  0.50176282  0.39208812     0.07040
C1279       C  0.82391297  0.50410019  0.38443051     0.00840
H1280       H  0.78129792  0.49690603  0.37778448     0.08490
H1281       H  0.83660204  0.50531513  0.39145620     0.07570
N1282       N  0.79075215  0.49593923  0.30913019    -0.36270
N1283       N  0.80304335  0.49357494  0.29650057    -0.28450
C1284       C  0.79476550  0.49222576  0.28046450    -0.03690
C1285       C  0.77639684  0.49370753  0.28316113     0.04920
C1286       C  0.77440278  0.49628850  0.30149685     0.03010
H1287       H  0.80164050  0.49058687  0.26771903     0.08120
H1288       H  0.76215710  0.49905820  0.30880316     0.06950
O1289       O  0.68498376  0.46890666  0.00168462    -0.73090
O1290       O  0.68608659  0.52240483  0.00410357    -0.74070
O1291       O  0.68683707  0.49691598  0.97625641    -0.62690
O1292       O  0.68421747  0.49451643  0.02942485    -0.71100
O1293       O  0.71385329  0.49442655  0.03150860    -0.70650
O1294       O  0.71659539  0.49586570  0.97701988    -0.61900
O1295       O  0.71587878  0.52233378  0.00499517    -0.74410
O1296       O  0.71464007  0.46771381  0.00354641    -0.73190
Cu1297     Cu  0.68460850  0.49566561  0.00280133     1.04560
Cu1298     Cu  0.71638400  0.49501255  0.00431147     1.04330
C1299       C  0.69943729  0.45968915  0.00241349     0.93110
C1300       C  0.70096510  0.53090768  0.00504810     0.92250
C1301       C  0.70190612  0.49707012  0.96811968     0.84390
C1302       C  0.69837289  0.49456779  0.03906067     0.90670
N1303       N  0.80253712  0.13831421  0.00746564    -0.27430
N1304       N  0.81919730  0.13404802  0.00305333    -0.35290
C1305       C  0.82046512  0.11604208  0.00180761     0.00910
C1306       C  0.80377150  0.10859206  0.00544713     0.06930
C1307       C  0.79272018  0.12313497  0.00908668    -0.06170
H1308       H  0.83277075  0.10883880  0.99890321     0.07600
H1309       H  0.77884098  0.12277671  0.01339702     0.08800
Cu1310     Cu  0.83980693  0.15273364  0.00029443     0.44170
Cu1311     Cu  0.79436013  0.16458525  0.01147483     0.41990
Cu1312     Cu  0.82895776  0.19947123  0.00718000     0.43880
N1313       N  0.85887173  0.17317331  0.00110545    -0.34820
N1314       N  0.85501739  0.19028606  0.00410459    -0.29070
C1315       C  0.87041278  0.19976594  0.00543615    -0.05170
C1316       C  0.88471753  0.18805097  0.00297330     0.07040
C1317       C  0.87679463  0.17131338  0.00032899     0.00840
H1318       H  0.87099146  0.21389290  0.00892971     0.08490
H1319       H  0.88360720  0.15855420  0.99852963     0.07570
N1320       N  0.80167473  0.20454494  0.00900934    -0.36270
N1321       N  0.78925123  0.19192854  0.01097530    -0.28450
C1322       C  0.77295449  0.19967215  0.01099313    -0.03690
C1323       C  0.77518054  0.21803291  0.00856204     0.04920
C1324       C  0.79357471  0.22065799  0.00761830     0.03010
H1325       H  0.76051719  0.19233696  0.01268195     0.08120
H1326       H  0.80054592  0.23330568  0.00553400     0.06950
N1327       N  0.69070046  0.35284070  0.00469766    -0.27430
N1328       N  0.67421578  0.35609394  0.01044329    -0.35290
C1329       C  0.67183681  0.37400394  0.01157408     0.00910
C1330       C  0.68745871  0.38249459  0.00590939     0.06930
C1331       C  0.69923250  0.36861749  0.00193134    -0.06170
H1332       H  0.65958662  0.38025206  0.01624046     0.07600
H1333       H  0.71285214  0.36989390  0.99695704     0.08800
Cu1334     Cu  0.65495966  0.33622027  0.01456266     0.44170
Cu1335     Cu  0.70046871  0.32704646  0.00081626     0.41990
Cu1336     Cu  0.66738522  0.29061230  0.00480656     0.43880
N1337       N  0.63657383  0.31521026  0.01265892    -0.34820
N1338       N  0.64099653  0.29849548  0.00846854    -0.29070
C1339       C  0.62592159  0.28867090  0.00618178    -0.05170
C1340       C  0.61122556  0.29974717  0.00921489     0.07040
C1341       C  0.61859255  0.31646712  0.01324522     0.00840
H1342       H  0.62581720  0.27485644  0.00156323     0.08490
H1343       H  0.61136096  0.32888419  0.01567349     0.07570
N1344       N  0.69485101  0.28679572  0.00289904    -0.36270
N1345       N  0.70679561  0.29990608  0.00117677    -0.28450
C1346       C  0.72337956  0.29275335  0.00103658    -0.03690
C1347       C  0.72180892  0.27426063  0.00306591     0.04920
C1348       C  0.70352313  0.27097941  0.00398027     0.03010
H1349       H  0.73554583  0.30055813  0.99946539     0.08120
H1350       H  0.69699619  0.25805142  0.00577754     0.06950
N1351       N  0.80254970  0.99569439  0.14790120    -0.27430
N1352       N  0.81965843  0.99407450  0.14356116    -0.35290
C1353       C  0.82107640  0.99302491  0.12558606     0.00910
C1354       C  0.80399701  0.99388929  0.11808483     0.06930
C1355       C  0.79254916  0.99546417  0.13278749    -0.06170
H1356       H  0.83370470  0.99167937  0.11848157     0.07600
H1357       H  0.77805216  0.99582308  0.13279688     0.08800
Cu1358     Cu  0.84018268  0.99273303  0.16233016     0.44170
Cu1359     Cu  0.79414663  0.99775621  0.17433807     0.41990
Cu1360     Cu  0.82911733  0.99580355  0.20951850     0.43880
N1361       N  0.85915443  0.99340198  0.18270980    -0.34820
N1362       N  0.85534878  0.99513267  0.20000366    -0.29070
C1363       C  0.87083864  0.99652931  0.20932883    -0.05170
C1364       C  0.88504479  0.99581770  0.19724796     0.07040
C1365       C  0.87705060  0.99341645  0.18056837     0.00840
H1366       H  0.87168854  0.99834714  0.22377192     0.08490
H1367       H  0.88361549  0.99160155  0.16772210     0.07570
N1368       N  0.80162774  0.99617620  0.21440249    -0.36270
N1369       N  0.78919567  0.99741191  0.20172606    -0.28450
C1370       C  0.77287709  0.99731974  0.20943243    -0.03690
C1371       C  0.77501899  0.99550488  0.22786675     0.04920
C1372       C  0.79346081  0.99506429  0.23051766     0.03010
H1373       H  0.76050526  0.99874934  0.20198591     0.08120
H1374       H  0.80044745  0.99373023  0.24323566     0.06950
N1375       N  0.69134607  0.99467823  0.36323343    -0.27430
N1376       N  0.67514372  0.00111352  0.36659493    -0.35290
C1377       C  0.67302677  0.00270610  0.38447859     0.00910
C1378       C  0.68852326  0.99665912  0.39284890     0.06930
C1379       C  0.69997612  0.99194266  0.37893650    -0.06170
H1380       H  0.66104178  0.00794188  0.39080430     0.07600
H1381       H  0.71342879  0.98653881  0.38014763     0.08800
Cu1382     Cu  0.65581289  0.00551867  0.34699891     0.44170
Cu1383     Cu  0.70056768  0.99002597  0.33737207     0.41990
Cu1384     Cu  0.66722234  0.99505510  0.30130441     0.43880
N1385       N  0.63695297  0.00300090  0.32661583    -0.34820
N1386       N  0.64096635  0.99852528  0.30987099    -0.29070
C1387       C  0.62562368  0.99590229  0.30058488    -0.05170
C1388       C  0.61129036  0.99862758  0.31216136     0.07040
C1389       C  0.61901105  0.00343249  0.32844455     0.00840
H1390       H  0.62495885  0.99160927  0.28666435     0.08490
H1391       H  0.61218086  0.00676189  0.34085646     0.07570
N1392       N  0.69465098  0.99253508  0.29719866    -0.36270
N1393       N  0.70662373  0.99031159  0.31017725    -0.28450
C1394       C  0.72314413  0.98966895  0.30289161    -0.03690
C1395       C  0.72154997  0.99190792  0.28444072     0.04920
C1396       C  0.70326732  0.99346090  0.28133182     0.03010
H1397       H  0.73527742  0.98758563  0.31059175     0.08120
H1398       H  0.69671600  0.99553019  0.26847943     0.06950
O1399       O  0.78085103  0.96821723  0.00462294    -0.73090
O1400       O  0.78061984  0.02293674  0.00613640    -0.74070
O1401       O  0.78039468  0.99636465  0.97790343    -0.62690
O1402       O  0.78097292  0.99466516  0.03243678    -0.71100
O1403       O  0.81075183  0.99476076  0.03163494    -0.70650
O1404       O  0.81016190  0.99683093  0.97822051    -0.61900
O1405       O  0.81038255  0.02245861  0.00596494    -0.74410
O1406       O  0.81060772  0.96920548  0.00415444    -0.73190
Cu1407     Cu  0.77955792  0.99556569  0.00521637     1.04560
Cu1408     Cu  0.81139263  0.99584178  0.00491689     1.04330
C1409       C  0.79603646  0.96013070  0.00466961     0.93110
C1410       C  0.79571959  0.03124420  0.00674880     0.92250
C1411       C  0.79539026  0.99688566  0.96947542     0.84390
C1412       C  0.79613795  0.99402720  0.04055830     0.90670
N1413       N  0.64306961  0.19147992  0.50388450    -0.27430
N1414       N  0.63957004  0.17553038  0.51098135    -0.35290
C1415       C  0.62173247  0.17373592  0.51289100     0.00910
C1416       C  0.61350942  0.18933408  0.50677938     0.06930
C1417       C  0.62751112  0.20029622  0.50106185    -0.06170
H1418       H  0.61516095  0.16166196  0.51778136     0.07600
H1419       H  0.62655986  0.21326473  0.49449455     0.08800
Cu1420     Cu  0.65886150  0.15592290  0.51542005     0.44170
Cu1421     Cu  0.66895920  0.19979332  0.49818313     0.41990
Cu1422     Cu  0.70433028  0.16539857  0.50271808     0.43880
N1423       N  0.67836940  0.13624169  0.51264120    -0.34820
N1424       N  0.69489384  0.13943910  0.50698668    -0.29070
C1425       C  0.70329252  0.12359117  0.50426897    -0.05170
C1426       C  0.69136342  0.10974392  0.50823890     0.07040
C1427       C  0.67584737  0.11837242  0.51389577     0.00840
H1428       H  0.71684623  0.12224367  0.49916831     0.08490
H1429       H  0.66349114  0.11230021  0.51848620     0.07570
N1430       N  0.70892962  0.19291626  0.50075928    -0.36270
N1431       N  0.69620745  0.20517382  0.49866051    -0.28450
C1432       C  0.70373472  0.22164153  0.49849400    -0.03690
C1433       C  0.72206264  0.21973951  0.50095447     0.04920
C1434       C  0.72488245  0.20132445  0.50209929     0.03010
H1435       H  0.69627075  0.23396469  0.49654309     0.08120
H1436       H  0.73759071  0.19453439  0.50413800     0.06950
N1437       N  0.80577809  0.35444686  0.50360114    -0.27430
N1438       N  0.82287322  0.35849300  0.50636731    -0.35290
C1439       C  0.82481406  0.37647790  0.50637622     0.00910
C1440       C  0.80823982  0.38422256  0.50304845     0.06930
C1441       C  0.79639511  0.36985247  0.50166375    -0.06170
H1442       H  0.83741417  0.38331505  0.50883196     0.07600
H1443       H  0.78209229  0.37053299  0.49910128     0.08800
Cu1444     Cu  0.84340902  0.33981658  0.50865708     0.44170
Cu1445     Cu  0.79632908  0.32811247  0.50249084     0.41990
Cu1446     Cu  0.83113703  0.29357856  0.50703702     0.43880
N1447       N  0.86208141  0.31916614  0.50769689    -0.34820
N1448       N  0.85749963  0.30198399  0.50681986    -0.29070
C1449       C  0.87242454  0.29181911  0.50602425    -0.05170
C1450       C  0.88713176  0.30322733  0.50635741     0.07040
C1451       C  0.88008965  0.32044780  0.50758189     0.00840
H1452       H  0.87249473  0.27723831  0.50581903     0.08490
H1453       H  0.88752731  0.33297713  0.50838693     0.07570
N1454       N  0.80402625  0.28825598  0.50547486    -0.36270
N1455       N  0.79136972  0.30056085  0.50334097    -0.28450
C1456       C  0.77536713  0.29219054  0.50217245    -0.03690
C1457       C  0.77814651  0.27376079  0.50348768     0.04920
C1458       C  0.79646620  0.27183044  0.50586113     0.03010
H1459       H  0.76264196  0.29901117  0.50037087     0.08120
H1460       H  0.80388761  0.25953694  0.50813266     0.06950
O1461       O  0.71572622  0.99595880  0.47788084    -0.73090
O1462       O  0.71677314  0.99675676  0.53250573    -0.74070
O1463       O  0.71577707  0.96903443  0.50536784    -0.62690
O1464       O  0.71662848  0.02382431  0.50473593    -0.71100
O1465       O  0.68689148  0.02351725  0.50487162    -0.70650
O1466       O  0.68609507  0.97020309  0.50649238    -0.61900
O1467       O  0.68698552  0.99779511  0.53242123    -0.74410
O1468       O  0.68599499  0.99595737  0.47905492    -0.73190
Cu1469     Cu  0.71738154  0.99638612  0.50514278     1.04560
Cu1470     Cu  0.68558456  0.99687989  0.50576013     1.04330
C1471       C  0.70049153  0.99561795  0.46987991     0.93110
C1472       C  0.70183121  0.99756932  0.54101158     0.92250
C1473       C  0.70051014  0.96101923  0.50560567     0.84390
C1474       C  0.70164636  0.03230085  0.50454697     0.90670
O1475       O  0.81172397  0.49476712  0.53206058    -0.73090
O1476       O  0.81323110  0.49764104  0.47888913    -0.74070
O1477       O  0.81302382  0.52299070  0.50693708    -0.62690
O1478       O  0.81186890  0.46961665  0.50392022    -0.71100
O1479       O  0.78205942  0.46963570  0.50358976    -0.70650
O1480       O  0.78333524  0.52422511  0.50594416    -0.61900
O1481       O  0.78352134  0.49788567  0.47743352    -0.74410
O1482       O  0.78194813  0.49566678  0.53200132    -0.73190
Cu1483     Cu  0.81337923  0.49628256  0.50549258     1.04560
Cu1484     Cu  0.78156395  0.49693522  0.50471156     1.04330
C1485       C  0.79684736  0.49441483  0.54053841     0.93110
C1486       C  0.79885524  0.49765190  0.46958572     0.92250
C1487       C  0.79858628  0.53219511  0.50704314     0.84390
C1488       C  0.79697729  0.46108596  0.50323087     0.90670
C1489       C  0.78944287  0.41080917  0.51092708    -0.20450
C1490       C  0.80417245  0.40369642  0.50145165    -0.07020
C1491       C  0.81489575  0.41535408  0.49084404     0.13850
C1492       C  0.81155795  0.43390313  0.49122889    -0.20500
C1493       C  0.79764374  0.44121047  0.50165438    -0.07020
C1494       C  0.78601686  0.42947908  0.51116393     0.13840
C1495       C  0.77057091  0.43655862  0.52218746    -0.23850
H1496       H  0.78098488  0.40178991  0.51870879     0.15130
H1497       H  0.82012686  0.44286700  0.48350112     0.15160
C1498       C  0.82952475  0.40843847  0.47859325    -0.23800
H1499       H  0.76326750  0.42552460  0.52920248     0.05370
H1500       H  0.76082962  0.44356013  0.51328086     0.08600
H1501       H  0.77564056  0.44609967  0.53254356     0.08590
H1502       H  0.82410087  0.39765830  0.46974250     0.08580
H1503       H  0.84096812  0.40320697  0.48654258     0.08580
H1504       H  0.83493467  0.41927746  0.46978299     0.05350
C1505       C  0.68433790  0.05992018  0.49800816    -0.20450
C1506       C  0.70061569  0.05236348  0.50393426    -0.07020
C1507       C  0.71449570  0.06407116  0.50983582     0.13850
C1508       C  0.71114390  0.08275205  0.51084552    -0.20500
C1509       C  0.69436031  0.09004829  0.50606535    -0.07020
C1510       C  0.68102366  0.07845670  0.49887965     0.13840
C1511       C  0.66343264  0.08531252  0.49143156    -0.23850
H1512       H  0.67386464  0.05118052  0.49279663     0.15130
H1513       H  0.72156254  0.09168078  0.51583892     0.15160
C1514       C  0.73264731  0.05709974  0.51548868    -0.23800
H1515       H  0.65623529  0.07473650  0.48364686     0.05370
H1516       H  0.66585245  0.09681650  0.48216985     0.08600
H1517       H  0.65434322  0.08933065  0.50252146     0.08590
H1518       H  0.73920552  0.05021221  0.50395219     0.08580
H1519       H  0.73112844  0.04754931  0.52690380     0.08580
H1520       H  0.74170279  0.06817069  0.51992113     0.05350
C1521       C  0.75222975  0.23080801  0.49264216    -0.20450
C1522       C  0.73601663  0.23396196  0.50172781    -0.07020
C1523       C  0.73394275  0.25004926  0.51178664     0.13850
C1524       C  0.74805500  0.26261021  0.51216805    -0.20500
C1525       C  0.76423358  0.25948872  0.50299490    -0.07020
C1526       C  0.76636082  0.24332082  0.49307841     0.13840
C1527       C  0.78306189  0.23932510  0.48229741    -0.23850
H1528       H  0.75379190  0.21847260  0.48496650     0.15130
H1529       H  0.74650427  0.27495099  0.51984323     0.15160
C1530       C  0.71733341  0.25387711  0.52276220    -0.23800
H1531       H  0.78137369  0.22712079  0.47378561     0.05370
H1532       H  0.79452826  0.23664836  0.49142628     0.08600
H1533       H  0.78620879  0.25080348  0.47322468     0.08590
H1534       H  0.71436470  0.24231987  0.53179970     0.08580
H1535       H  0.70574817  0.25650516  0.51377831     0.08580
H1536       H  0.71904195  0.26604544  0.53132474     0.05350
C1537       C  0.70848660  0.00153397  0.41928135    -0.20450
C1538       C  0.69202825  0.99522113  0.41243436    -0.07020
C1539       C  0.67940079  0.98742003  0.42435129     0.13850
C1540       C  0.68302834  0.98730437  0.44284338    -0.20500
C1541       C  0.69897783  0.99461369  0.44993142    -0.07020
C1542       C  0.71216855  0.00133676  0.43789167     0.13840
C1543       C  0.72984872  0.00879834  0.44444655    -0.23850
H1544       H  0.71833057  0.00709029  0.41003906     0.15130
H1545       H  0.67314179  0.98152770  0.45190107     0.15160
C1546       C  0.66234813  0.97854138  0.41777690    -0.23800
H1547       H  0.73824638  0.01389405  0.43315896     0.05370
H1548       H  0.73758654  0.99804879  0.45137808     0.08600
H1549       H  0.72744824  0.02018109  0.45384665     0.08590
H1550       H  0.66554087  0.96851351  0.40715187     0.08580
H1551       H  0.65289281  0.98875098  0.41247246     0.08580
H1552       H  0.65524938  0.97132424  0.42880325     0.05350
C1553       C  0.81148389  0.98214803  0.08786873    -0.20450
C1554       C  0.79980978  0.99253953  0.09849062    -0.07020
C1555       C  0.78576787  0.00222036  0.08988020     0.13850
C1556       C  0.78454817  0.00197647  0.07095249    -0.20500
C1557       C  0.79700391  0.99249428  0.06042006    -0.07020
C1558       C  0.81036750  0.98203458  0.06905132     0.13840
C1559       C  0.82338351  0.97042451  0.05863387    -0.23850
H1560       H  0.82185949  0.97421153  0.09433504     0.15130
H1561       H  0.77415383  0.00974455  0.06429037     0.15160
C1562       C  0.77241491  0.01340692  0.10021677    -0.23800
H1563       H  0.83183944  0.96205746  0.06769429     0.05370
H1564       H  0.83264080  0.97897265  0.05059331     0.08600
H1565       H  0.81586031  0.96115759  0.04961322     0.08590
H1566       H  0.77953402  0.02310215  0.10910688     0.08580
H1567       H  0.76351653  0.00447882  0.10822737     0.08580
H1568       H  0.76358787  0.02130688  0.09109075     0.05350
C1569       C  0.76425938  0.00329875  0.25842353    -0.20450
C1570       C  0.76097570  0.99447345  0.24201486    -0.07020
C1571       C  0.74493769  0.98433376  0.23995574     0.13850
C1572       C  0.73263731  0.98357116  0.25424376    -0.20500
C1573       C  0.73586647  0.99249083  0.27058610    -0.07020
C1574       C  0.75194847  0.00250555  0.27272326     0.13840
C1575       C  0.75604437  0.01299976  0.28962771    -0.23850
H1576       H  0.77651699  0.01106237  0.26001359     0.15130
H1577       H  0.72034037  0.97586559  0.25265547     0.15160
C1578       C  0.74078819  0.97370452  0.22314368    -0.23800
H1579       H  0.76825189  0.02150558  0.28806668     0.05370
H1580       H  0.75867291  0.00364172  0.30095309     0.08600
H1581       H  0.74465268  0.02205624  0.29294786     0.08590
H1582       H  0.75236191  0.96499211  0.21955306     0.08580
H1583       H  0.73752570  0.98295219  0.21189840     0.08580
H1584       H  0.72890265  0.96480689  0.22499567     0.05350
C1585       C  0.81219367  0.07865673  0.01690175    -0.20450
C1586       C  0.79982126  0.08912036  0.00730101    -0.07020
C1587       C  0.78500659  0.08061611  0.99885500     0.13850
C1588       C  0.78355025  0.06169277  0.99946559    -0.20500
C1589       C  0.79658022  0.05115611  0.00821780    -0.07020
C1590       C  0.81076381  0.05986312  0.01760288     0.13840
C1591       C  0.82438507  0.04960354  0.02866306    -0.23850
H1592       H  0.82329093  0.08526976  0.02370684     0.15130
H1593       H  0.77258381  0.05506382  0.99247345     0.15160
C1594       C  0.77124903  0.09124227  0.98843393    -0.23800
H1595       H  0.83326810  0.05880426  0.03644202     0.05370
H1596       H  0.83320382  0.04147167  0.01978632     0.08600
H1597       H  0.81738009  0.04070006  0.03844706     0.08590
H1598       H  0.77798508  0.09934419  0.97781314     0.08580
H1599       H  0.76378241  0.10028994  0.99765307     0.08580
H1600       H  0.76125295  0.08229908  0.98179379     0.05350
C1601       C  0.73350642  0.24429968  0.99477158    -0.20450
C1602       C  0.73615137  0.26051618  0.00413243    -0.07020
C1603       C  0.75162706  0.26260583  0.01504492     0.13850
C1604       C  0.76396976  0.24838294  0.01625155    -0.20500
C1605       C  0.76121910  0.23210651  0.00702539    -0.07020
C1606       C  0.74583403  0.23008601  0.99597915     0.13840
C1607       C  0.74253985  0.21339786  0.98484702    -0.23850
H1608       H  0.72167434  0.24276370  0.98637590     0.15130
H1609       H  0.77580596  0.24989788  0.02464650     0.15160
C1610       C  0.75497371  0.27935082  0.02606172    -0.23800
H1611       H  0.73092934  0.21511048  0.97559260     0.05370
H1612       H  0.73935107  0.20180672  0.99369928     0.08600
H1613       H  0.75454019  0.21036271  0.97650161     0.08590
H1614       H  0.74308842  0.28232804  0.03459100     0.08580
H1615       H  0.75791287  0.29092114  0.01709154     0.08580
H1616       H  0.76675208  0.27776478  0.03512494     0.05350
C1617       C  0.70726867  0.40922258  0.01016428    -0.20450
C1618       C  0.69084907  0.40211968  0.00401908    -0.07020
C1619       C  0.67829297  0.41378158  0.99575333     0.13850
C1620       C  0.68198602  0.43227938  0.99493273    -0.20500
C1621       C  0.69791550  0.43965671  0.00201521    -0.07020
C1622       C  0.71100141  0.42783168  0.00929954     0.13840
C1623       C  0.72865221  0.43460512  0.01664046    -0.23850
H1624       H  0.71706877  0.40018415  0.01609128     0.15130
H1625       H  0.67213412  0.44111703  0.98880901     0.15160
C1626       C  0.66123495  0.40692630  0.98711634    -0.23800
H1627       H  0.73699444  0.42346775  0.02212115     0.05370
H1628       H  0.72620538  0.44434748  0.02771935     0.08600
H1629       H  0.73647759  0.44120056  0.00573062     0.08590
H1630       H  0.65167919  0.40218687  0.99752279     0.08580
H1631       H  0.66437416  0.39582515  0.97759873     0.08580
H1632       H  0.65427131  0.41767161  0.97938295     0.05350
C1633       C  0.81633502  0.49055495  0.42193979    -0.20450
C1634       C  0.80326069  0.49940156  0.41161976    -0.07020
C1635       C  0.78789142  0.50651809  0.42038315     0.13850
C1636       C  0.78660718  0.50538145  0.43927648    -0.20500
C1637       C  0.80023364  0.49737014  0.44963168    -0.07020
C1638       C  0.81509314  0.48938895  0.44070535     0.13840
C1639       C  0.82967673  0.47929707  0.45063660    -0.23850
H1640       H  0.82782929  0.48459783  0.41524566     0.15130
H1641       H  0.77509657  0.51123195  0.44604579     0.15160
C1642       C  0.77312411  0.51594415  0.41019891    -0.23800
H1643       H  0.83921863  0.47264778  0.44125187     0.05370
H1644       H  0.82360561  0.46861632  0.45918636     0.08600
H1645       H  0.83767865  0.48872386  0.45904456     0.08590
H1646       H  0.76573990  0.50611413  0.40171908     0.08580
H1647       H  0.77883516  0.52686829  0.40172045     0.08580
H1648       H  0.76313422  0.52211350  0.41944255     0.05350
C1649       C  0.68036788  0.50194579  0.08655100    -0.20450
C1650       C  0.69466867  0.49591467  0.09733402    -0.07020
C1651       C  0.71057165  0.48983047  0.08864938     0.13850
C1652       C  0.71138180  0.48971298  0.06968070    -0.20500
C1653       C  0.69669929  0.49506424  0.05904154    -0.07020
C1654       C  0.68085038  0.50112858  0.06775879     0.13840
C1655       C  0.66412239  0.50675610  0.05767690    -0.23850
H1656       H  0.66837954  0.50725139  0.09283268     0.15130
H1657       H  0.72353867  0.48509203  0.06309503     0.15160
C1658       C  0.72669368  0.48311129  0.09889047    -0.23800
H1659       H  0.65342661  0.51175740  0.06683068     0.05370
H1660       H  0.65842909  0.49504328  0.05030428     0.08600
H1661       H  0.66728779  0.51778160  0.04815096     0.08590
H1662       H  0.72264580  0.47233257  0.10844746     0.08580
H1663       H  0.73319208  0.49449675  0.10606297     0.08580
H1664       H  0.73701797  0.47732423  0.08976688     0.05350
C1665       C  0.73332349  0.48579789  0.25658114    -0.20450
C1666       C  0.73698991  0.49540269  0.24069346    -0.07020
C1667       C  0.75362664  0.50460179  0.23901240     0.13850
C1668       C  0.76605071  0.50378570  0.25319621    -0.20500
C1669       C  0.76234072  0.49422039  0.26906709    -0.07020
C1670       C  0.74572910  0.48505635  0.27078429     0.13840
C1671       C  0.74112553  0.47389761  0.28713608    -0.23850
H1672       H  0.72065795  0.47866644  0.25785835     0.15130
H1673       H  0.77875367  0.51086563  0.25195700     0.15160
C1674       C  0.75830663  0.51589836  0.22277914    -0.23800
H1675       H  0.72847444  0.46615993  0.28518977     0.05370
H1676       H  0.73904408  0.48273054  0.29897718     0.08600
H1677       H  0.75202641  0.46407962  0.28990430     0.08590
H1678       H  0.74726515  0.52548817  0.21978000     0.08580
H1679       H  0.76093822  0.50711799  0.21101089     0.08580
H1680       H  0.77072100  0.52393963  0.22501392     0.05350
C1681       C  0.56259797  0.48224509  0.19424008    -0.20450
C1682       C  0.55523666  0.49258150  0.20821495    -0.07020
C1683       C  0.56693558  0.50172851  0.22015795     0.13850
C1684       C  0.58555211  0.50173975  0.21663301    -0.20500
C1685       C  0.59272889  0.49248315  0.20174722    -0.07020
C1686       C  0.58112009  0.48178055  0.19101965     0.13840
C1687       C  0.58797530  0.46922683  0.17658251    -0.23850
H1688       H  0.55369530  0.47457036  0.18556219     0.15130
H1689       H  0.59448627  0.50942197  0.22525946     0.15160
C1690       C  0.55992985  0.51185266  0.23625311    -0.23800
H1691       H  0.57734720  0.45973261  0.17200613     0.05370
H1692       H  0.59926933  0.46101707  0.18188293     0.08600
H1693       H  0.59228864  0.47690384  0.16455393     0.08590
H1694       H  0.55311735  0.50235078  0.24558893     0.08580
H1695       H  0.55027055  0.52229928  0.23186098     0.08580
H1696       H  0.57091855  0.51862894  0.24381337     0.05350
C1697       C  0.56593663  0.20851804  0.50900193    -0.20450
C1698       C  0.55576802  0.19334985  0.50385662    -0.07020
C1699       C  0.56496752  0.17750697  0.49829655     0.13850
C1700       C  0.58375964  0.17710906  0.49885955    -0.20500
C1701       C  0.59385273  0.19194528  0.50470987    -0.07020
C1702       C  0.58485335  0.20803790  0.50950099     0.13840
C1703       C  0.59493675  0.22447113  0.51588105    -0.23850
H1704       H  0.55904972  0.22071855  0.51308708     0.15130
H1705       H  0.59069998  0.16491217  0.49483304     0.15160
C1706       C  0.55537156  0.16085981  0.49153493    -0.23800
H1707       H  0.58566259  0.23530218  0.52035879     0.05370
H1708       H  0.60315484  0.23006038  0.50474320     0.08600
H1709       H  0.60371791  0.22090182  0.52743223     0.08590
H1710       H  0.54639857  0.16444057  0.48012830     0.08580
H1711       H  0.54752183  0.15456579  0.50259522     0.08580
H1712       H  0.56490819  0.15046726  0.48659151     0.05350
C1713       C  0.91655908  0.48629185  0.32071949    -0.20450
C1714       C  0.90613528  0.49512508  0.30770991    -0.07020
C1715       C  0.91472924  0.50258419  0.29239630     0.13850
C1716       C  0.93358856  0.50165535  0.29097652    -0.20500
C1717       C  0.94409294  0.49356056  0.30448478    -0.07020
C1718       C  0.93531425  0.48530806  0.31934168     0.13840
C1719       C  0.94541359  0.47515546  0.33377503    -0.23850
H1720       H  0.90994051  0.48026099  0.33226169     0.15130
H1721       H  0.94020828  0.50782511  0.27951285     0.15160
C1722       C  0.90431906  0.51229433  0.27794970    -0.23800
H1723       H  0.93616361  0.46827356  0.34331384     0.05370
H1724       H  0.95376499  0.48457802  0.34183637     0.08600
H1725       H  0.95401978  0.46466345  0.32751327     0.08590
H1726       H  0.89617865  0.52325033  0.28402418     0.08580
H1727       H  0.89543027  0.50268395  0.27076464     0.08580
H1728       H  0.91336182  0.51844998  0.26774225     0.05350
C1729       C  0.30141785  0.51005240  0.06941949    -0.20450
C1730       C  0.29593764  0.49447245  0.06026888    -0.07020
C1731       C  0.29161106  0.47872520  0.07004103     0.13850
C1732       C  0.29357445  0.47871439  0.08886310    -0.20500
C1733       C  0.29981732  0.49407583  0.09793498    -0.07020
C1734       C  0.30331282  0.51006793  0.08821496     0.13840
C1735       C  0.30905955  0.52710550  0.09766921    -0.23850
H1736       H  0.30453218  0.52213023  0.06178218     0.15130
H1737       H  0.29095015  0.46649124  0.09644296     0.15160
C1738       C  0.28568296  0.46177651  0.06054104    -0.23800
H1739       H  0.31076947  0.53848217  0.08807582     0.05370
H1740       H  0.32206944  0.52495824  0.10464275     0.08600
H1741       H  0.29870268  0.53100380  0.10771196     0.08590
H1742       H  0.29625612  0.45736479  0.05096767     0.08580
H1743       H  0.27306889  0.46436696  0.05299034     0.08580
H1744       H  0.28315308  0.45059380  0.07017754     0.05350
C1745       C  0.43749760  0.50256151  0.18708670    -0.20450
C1746       C  0.44430776  0.49752649  0.20401659    -0.07020
C1747       C  0.43194376  0.49307098  0.21786040     0.13850
C1748       C  0.41337306  0.49284040  0.21400229    -0.20500
C1749       C  0.40668977  0.49708322  0.19676169    -0.07020
C1750       C  0.41906873  0.50254170  0.18326133     0.13840
C1751       C  0.41335782  0.50899094  0.16484681    -0.23850
H1752       H  0.44673744  0.50652700  0.17650558     0.15130
H1753       H  0.40401925  0.48897008  0.22450274     0.15160
C1754       C  0.43804591  0.48826851  0.23660975    -0.23800
H1755       H  0.42442651  0.51620212  0.15781822     0.05370
H1756       H  0.40199233  0.51859588  0.16595882     0.08600
H1757       H  0.40979636  0.49733949  0.15621658     0.08590
H1758       H  0.44529466  0.49986953  0.24269502     0.08580
H1759       H  0.44698507  0.47631257  0.23614512     0.08580
H1760       H  0.42653702  0.48495942  0.24556037     0.05350
C1761       C  0.06309093  0.48795376  0.31663592    -0.20450
C1762       C  0.05515480  0.49533990  0.30112461    -0.07020
C1763       C  0.06645815  0.50238443  0.28743964     0.13850
C1764       C  0.08519660  0.50303772  0.29033607    -0.20500
C1765       C  0.09285560  0.49677615  0.30647009    -0.07020
C1766       C  0.08168161  0.48842924  0.31944529     0.13840
C1767       C  0.08917692  0.47937353  0.33604072    -0.23850
H1768       H  0.05461977  0.48183974  0.32684153     0.15130
H1769       H  0.09386809  0.50897972  0.28020040     0.15160
C1770       C  0.05895898  0.50970956  0.27007426    -0.23800
H1771       H  0.07865799  0.47174030  0.34345587     0.05370
H1772       H  0.09467645  0.48948267  0.34552846     0.08600
H1773       H  0.09984371  0.46967961  0.33214415     0.08590
H1774       H  0.04942567  0.52082950  0.27293814     0.08580
H1775       H  0.05194056  0.49880267  0.26260615     0.08580
H1776       H  0.06971595  0.51509804  0.26118796     0.05350
C1777       C  0.20517806  0.50258655  0.41907312    -0.20450
C1778       C  0.18882826  0.49711222  0.41133372    -0.07020
C1779       C  0.17544794  0.48941764  0.42252076     0.13850
C1780       C  0.17827701  0.48867698  0.44118147    -0.20500
C1781       C  0.19425834  0.49497211  0.44910815    -0.07020
C1782       C  0.20816711  0.50149332  0.43776305     0.13840
C1783       C  0.22605657  0.50762212  0.44509024    -0.23850
H1784       H  0.21560683  0.50804266  0.41043950     0.15130
H1785       H  0.16781399  0.48308670  0.44968930     0.15160
C1786       C  0.15846982  0.48118596  0.41500291    -0.23800
H1787       H  0.23502419  0.51278474  0.43428498     0.05370
H1788       H  0.23300339  0.49612791  0.45164963     0.08600
H1789       H  0.22409863  0.51862777  0.45498191     0.08590
H1790       H  0.16182561  0.47149362  0.40411594     0.08580
H1791       H  0.14941871  0.49180462  0.40980922     0.08580
H1792       H  0.15084221  0.47370259  0.42548592     0.05350
C1793       C  0.23426091  0.50320520  0.25441691    -0.20450
C1794       C  0.23785385  0.49307984  0.26999595    -0.07020
C1795       C  0.25470682  0.48432941  0.27162120     0.13850
C1796       C  0.26729592  0.48583530  0.25757408    -0.20500
C1797       C  0.26351747  0.49567632  0.24187821    -0.07020
C1798       C  0.24682668  0.50469290  0.24039425     0.13840
C1799       C  0.24232791  0.51650413  0.22448020    -0.23850
H1800       H  0.22150004  0.51013806  0.25323036     0.15130
H1801       H  0.28010660  0.47897809  0.25870644     0.15160
C1802       C  0.25937261  0.47275378  0.28764081    -0.23800
H1803       H  0.22956319  0.52396539  0.22657433     0.05370
H1804       H  0.24055120  0.50822221  0.21220124     0.08600
H1805       H  0.25316460  0.52659045  0.22234522     0.08590
H1806       H  0.24866998  0.46256307  0.28994285     0.08580
H1807       H  0.26112987  0.48125263  0.29977920     0.08580
H1808       H  0.27221804  0.46541880  0.28559430     0.05350
C1809       C  0.91453714  0.17827819  0.01372002    -0.20450
C1810       C  0.90430677  0.19150964  0.00497716    -0.07020
C1811       C  0.91316964  0.20672122  0.99755223     0.13850
C1812       C  0.93203704  0.20790845  0.99862830    -0.20500
C1813       C  0.94230552  0.19421908  0.00670022    -0.07020
C1814       C  0.93330560  0.17931227  0.01464822     0.13840
C1815       C  0.94316309  0.16437033  0.02430714    -0.23850
H1816       H  0.90776385  0.16680236  0.01971995     0.15130
H1817       H  0.93885318  0.21934745  0.99260526     0.15160
C1818       C  0.90308066  0.22132990  0.98774291    -0.23800
H1819       H  0.93376933  0.15476600  0.03090962     0.05370
H1820       H  0.95195789  0.17009526  0.03494574     0.08600
H1821       H  0.95129650  0.15646356  0.01459848     0.08590
H1822       H  0.89451966  0.22889968  0.99731298     0.08580
H1823       H  0.89468682  0.21534697  0.97690875     0.08580
H1824       H  0.91235272  0.23123096  0.98141073     0.05350
C1825       C  0.91160571  0.98854418  0.21643252    -0.20450
C1826       C  0.90454689  0.99740087  0.20123386    -0.07020
C1827       C  0.91624776  0.00770661  0.19024645     0.13850
C1828       C  0.93472978  0.00738457  0.19369369    -0.20500
C1829       C  0.94199711  0.99746299  0.20804771    -0.07020
C1830       C  0.93020031  0.98859737  0.22010252     0.13840
C1831       C  0.93706418  0.97882207  0.23648385    -0.23850
H1832       H  0.90258311  0.98115303  0.22521969     0.15130
H1833       H  0.94367924  0.01485972  0.18488969     0.15160
C1834       C  0.90951792  0.01969483  0.17526554    -0.23800
H1835       H  0.92599841  0.97227050  0.24412471     0.05370
H1836       H  0.94385561  0.98850574  0.24564569     0.08600
H1837       H  0.94669306  0.96822104  0.23240035     0.08590
H1838       H  0.89834590  0.02827505  0.18021121     0.08580
H1839       H  0.90504614  0.01153290  0.16361962     0.08580
H1840       H  0.92024873  0.02883037  0.17022581     0.05350
C1841       C  0.98728216  0.41053260  0.29807822    -0.20450
C1842       C  0.00098471  0.40258074  0.30836693    -0.07020
C1843       C  0.01525639  0.41337210  0.31486360     0.13850
C1844       C  0.01490900  0.43202517  0.31185921    -0.20500
C1845       C  0.00081621  0.44011297  0.30230216    -0.07020
C1846       C  0.98696860  0.42925943  0.29504494     0.13840
C1847       C  0.97142001  0.43748941  0.28498124    -0.23850
H1848       H  0.97643358  0.40216148  0.29302696     0.15130
H1849       H  0.02559467  0.44042517  0.31721063     0.15160
C1850       C  0.03106888  0.40526288  0.32463709    -0.23800
H1851       H  0.96147997  0.42712347  0.28075805     0.05370
H1852       H  0.97638720  0.44440568  0.27268785     0.08600
H1853       H  0.96442349  0.44739916  0.29372902     0.08590
H1854       H  0.03736392  0.39471859  0.31610451     0.08580
H1855       H  0.02668687  0.39922433  0.33756745     0.08580
H1856       H  0.04148491  0.41554975  0.32776155     0.05350
C1857       C  0.98360594  0.19818744  0.09042527    -0.20450
C1858       C  0.99929272  0.19191064  0.09883673    -0.07020
C1859       C  0.01483904  0.18868862  0.08844669     0.13850
C1860       C  0.01408522  0.19093732  0.06971697    -0.20500
C1861       C  0.99822570  0.19643937  0.06119089    -0.07020
C1862       C  0.98288624  0.20045918  0.07162226     0.13840
C1863       C  0.96564710  0.20648157  0.06286000    -0.23850
H1864       H  0.97173779  0.20069024  0.09850907     0.15130
H1865       H  0.02585651  0.18820218  0.06167447     0.15160
C1866       C  0.03226734  0.18302590  0.09710582    -0.23800
H1867       H  0.95485143  0.20873812  0.07294189     0.05370
H1868       H  0.96093657  0.19605020  0.05323029     0.08600
H1869       H  0.96792309  0.21930705  0.05548912     0.08590
H1870       H  0.03059217  0.16979342  0.10386853     0.08580
H1871       H  0.03643484  0.19327325  0.10719696     0.08580
H1872       H  0.04323638  0.18169344  0.08704383     0.05350
C1873       C  0.01368774  0.07932336  0.20610324    -0.20450
C1874       C  0.99738316  0.08840573  0.20353693    -0.07020
C1875       C  0.98103631  0.07874229  0.20409148     0.13850
C1876       C  0.98140198  0.05996004  0.20642397    -0.20500
C1877       C  0.99774600  0.05080335  0.20838589    -0.07020
C1878       C  0.01404087  0.06056341  0.20862614     0.13840
C1879       C  0.03176691  0.05110370  0.21108402    -0.23850
H1880       H  0.02617211  0.08687678  0.20569104     0.15130
H1881       H  0.96895229  0.05233442  0.20628681     0.15160
C1882       C  0.96329040  0.08822303  0.20184901    -0.23800
H1883       H  0.04323807  0.06070898  0.21080983     0.05370
H1884       H  0.03371241  0.04115366  0.20012634     0.08600
H1885       H  0.03191080  0.04396864  0.22423415     0.08590
H1886       H  0.96280366  0.09501843  0.18853064     0.08580
H1887       H  0.96167152  0.09845585  0.21264776     0.08580
H1888       H  0.95180014  0.07866973  0.20266578     0.05350
C1889       C  0.01089653  0.24447390  0.24201109    -0.20450
C1890       C  0.99685306  0.23183231  0.24236690    -0.07020
C1891       C  0.98359098  0.23296948  0.25595899     0.13850
C1892       C  0.98490811  0.24656248  0.26905368    -0.20500
C1893       C  0.99896213  0.25917926  0.26871029    -0.07020
C1894       C  0.01218976  0.25808801  0.25509143     0.13840
C1895       C  0.02804210  0.27076594  0.25470227    -0.23850
H1896       H  0.02105881  0.24350328  0.23158514     0.15130
H1897       H  0.97474803  0.24754674  0.27947881     0.15160
C1898       C  0.96763908  0.22041253  0.25629176    -0.23800
H1899       H  0.03758240  0.26732435  0.24372357     0.05370
H1900       H  0.03542431  0.27000447  0.26768844     0.08600
H1901       H  0.02343137  0.28478352  0.25242013     0.08590
H1902       H  0.97210273  0.20637831  0.25873170     0.08580
H1903       H  0.96036926  0.22114576  0.24323994     0.08580
H1904       H  0.95802848  0.22400309  0.26715955     0.05350
C1905       C  0.18099824  0.00503487  0.08920810    -0.20450
C1906       C  0.19397241  0.99597271  0.09944912    -0.07020
C1907       C  0.20893765  0.98820800  0.09062148     0.13850
C1908       C  0.21009364  0.98915326  0.07170874    -0.20500
C1909       C  0.19663127  0.99752983  0.06138568    -0.07020
C1910       C  0.18208744  0.00600078  0.07039646     0.13840
C1911       C  0.16770249  0.01637445  0.06049738    -0.23850
H1912       H  0.16971176  0.01126363  0.09602372     0.15130
H1913       H  0.22130809  0.98278678  0.06490833     0.15160
C1914       C  0.22325340  0.97815811  0.10085995    -0.23800
H1915       H  0.15840671  0.02333675  0.06990428     0.05370
H1916       H  0.15942214  0.00709899  0.05219922     0.08600
H1917       H  0.17399770  0.02682073  0.05184039     0.08590
H1918       H  0.21703892  0.96728063  0.10904936     0.08580
H1919       H  0.23071747  0.98756782  0.10973486     0.08580
H1920       H  0.23320017  0.97185337  0.09166134     0.05350
C1921       C  0.06328712  0.98908956  0.21933834    -0.20450
C1922       C  0.05295891  0.99585531  0.20498496    -0.07020
C1923       C  0.06198339  0.00228476  0.18936870     0.13850
C1924       C  0.08075996  0.00139536  0.18851617    -0.20500
C1925       C  0.09104892  0.99387543  0.20244763    -0.07020
C1926       C  0.08216178  0.98787005  0.21825803     0.13840
C1927       C  0.09218254  0.97947212  0.23376111    -0.23850
H1928       H  0.05651144  0.98420683  0.23131572     0.15130
H1929       H  0.08748355  0.00639499  0.17656447     0.15160
C1930       C  0.05221016  0.01006436  0.17330589    -0.23800
H1931       H  0.08286748  0.97391336  0.24406353     0.05370
H1932       H  0.10053949  0.98979643  0.24057965     0.08600
H1933       H  0.10071234  0.96822783  0.22886579     0.08590
H1934       H  0.04344768  0.02135079  0.17757042     0.08580
H1935       H  0.04408310  0.99943738  0.16661778     0.08580
H1936       H  0.06163495  0.01543968  0.16300661     0.05350
C1937       C  0.25071770  0.98832459  0.23843257    -0.20450
C1938       C  0.23479329  0.99753501  0.24270955    -0.07020
C1939       C  0.23342956  0.00638385  0.25955848     0.13850
C1940       C  0.24788741  0.00551952  0.27165397    -0.20500
C1941       C  0.26373967  0.99621853  0.26742128    -0.07020
C1942       C  0.26519203  0.98750004  0.25053853     0.13840
C1943       C  0.28154318  0.97669644  0.24538038    -0.23850
H1944       H  0.25177300  0.98150230  0.22556117     0.15130
H1945       H  0.24683827  0.01227482  0.28456348     0.15160
C1946       C  0.21719773  0.01734444  0.26478138    -0.23800
H1947       H  0.27955721  0.96945576  0.23242969     0.05370
H1948       H  0.28446007  0.96648294  0.25591479     0.08600
H1949       H  0.29327477  0.98573577  0.24358830     0.08590
H1950       H  0.20555154  0.00837198  0.26728530     0.08580
H1951       H  0.21397750  0.02721239  0.25401173     0.08580
H1952       H  0.21952598  0.02503324  0.27741308     0.05350
C1953       C  0.31421137  0.41157431  0.01247166    -0.20450
C1954       C  0.30067721  0.40121323  0.00436905    -0.07020
C1955       C  0.28504150  0.41000600  0.99790602     0.13850
C1956       C  0.28395166  0.42897470  0.99882464    -0.20500
C1957       C  0.29807416  0.43939231  0.00595663    -0.07020
C1958       C  0.31322750  0.43039251  0.01336897     0.13840
C1959       C  0.32856240  0.44026814  0.02240175    -0.23850
H1960       H  0.32593969  0.40486089  0.01793516     0.15130
H1961       H  0.27222733  0.43573415  0.99340984     0.15160
C1962       C  0.26979283  0.39972400  0.98935767    -0.23800
H1963       H  0.33827734  0.43084904  0.02875512     0.05370
H1964       H  0.32332485  0.44919983  0.03317457     0.08600
H1965       H  0.33620171  0.44827277  0.01234634     0.08590
H1966       H  0.26306564  0.39117145  0.99959025     0.08580
H1967       H  0.27490849  0.39124641  0.97816404     0.08580
H1968       H  0.25942397  0.40891411  0.98375600     0.05350
C1969       C  0.20716933  0.08185038  0.99742396    -0.20450
C1970       C  0.19412151  0.08902261  0.00905886    -0.07020
C1971       C  0.18501633  0.07746005  0.02113102     0.13850
C1972       C  0.18805902  0.05887125  0.02018794    -0.20500
C1973       C  0.20017051  0.05150538  0.00773867    -0.07020
C1974       C  0.21028282  0.06315325  0.99658093     0.13840
C1975       C  0.22342500  0.05589393  0.98303530    -0.23850
H1976       H  0.21433381  0.09082232  0.98838432     0.15130
H1977       H  0.18064241  0.04993426  0.02904058     0.15160
C1978       C  0.17241962  0.08460468  0.03534795    -0.23800
H1979       H  0.22988258  0.06685687  0.97513349     0.05370
H1980       H  0.21620372  0.04694333  0.97351818     0.08600
H1981       H  0.23418212  0.04822429  0.98999224     0.08590
H1982       H  0.16037487  0.09068792  0.02905701     0.08580
H1983       H  0.17946028  0.09487025  0.04366164     0.08580
H1984       H  0.16767408  0.07373668  0.04450045     0.05350
C1985       C  0.06308182  0.20862483  0.99609361    -0.20450
C1986       C  0.05314161  0.19653886  0.00672568    -0.07020
C1987       C  0.06235536  0.18334636  0.01697435     0.13850
C1988       C  0.08106146  0.18209068  0.01568067    -0.20500
C1989       C  0.09096549  0.19340346  0.00425392    -0.07020
C1990       C  0.08190457  0.20715646  0.99460125     0.13840
C1991       C  0.09171324  0.21968183  0.98199800    -0.23850
H1992       H  0.05600922  0.21874235  0.98830056     0.15130
H1993       H  0.08800939  0.17182646  0.02339606     0.15160
C1994       C  0.05268657  0.17053957  0.02946719    -0.23800
H1995       H  0.08228558  0.22853730  0.97450165     0.05370
H1996       H  0.09947992  0.21177134  0.97198119     0.08600
H1997       H  0.10087242  0.22857165  0.98974235     0.08590
H1998       H  0.04421586  0.16101836  0.02166298     0.08580
H1999       H  0.04422545  0.17829429  0.03895461     0.08580
H2000       H  0.06220089  0.16232064  0.03755778     0.05350
C2001       C  0.25053226  0.22829493  0.99860198    -0.20450
C2002       C  0.23433516  0.23205859  0.00751479    -0.07020
C2003       C  0.23267795  0.24831410  0.01734675     0.13850
C2004       C  0.24717590  0.26040522  0.01773663    -0.20500
C2005       C  0.26332133  0.25674349  0.00868204    -0.07020
C2006       C  0.26503662  0.24040145  0.99897438     0.13840
C2007       C  0.28168454  0.23580097  0.98836916    -0.23850
H2008       H  0.25177746  0.21582135  0.99108775     0.15130
H2009       H  0.24590193  0.27287424  0.02524765     0.15160
C2010       C  0.21605232  0.25284820  0.02802504    -0.23800
H2011       H  0.27976209  0.22345590  0.98010976     0.05370
H2012       H  0.29303018  0.23307747  0.99763696     0.08600
H2013       H  0.28513413  0.24701202  0.97907371     0.08590
H2014       H  0.21258945  0.24153800  0.03719554     0.08580
H2015       H  0.20468130  0.25569791  0.01883140     0.08580
H2016       H  0.21802668  0.26509241  0.03641831     0.05350
C2017       C  0.28418824  0.00214741  0.43894778    -0.20450
C2018       C  0.29672914  0.99323036  0.44992018    -0.07020
C2019       C  0.31025457  0.98259820  0.44171668     0.13850
C2020       C  0.31148224  0.98205065  0.42292731    -0.20500
C2021       C  0.29968615  0.99180061  0.41188816    -0.07020
C2022       C  0.28550498  0.00163819  0.42000581     0.13840
C2023       C  0.27219704  0.01224488  0.40900860    -0.23850
H2024       H  0.27365214  0.01002783  0.44523696     0.15130
H2025       H  0.32203493  0.97409379  0.41676851     0.15160
C2026       C  0.32330751  0.97140707  0.45254973    -0.23800
H2027       H  0.26301200  0.02023178  0.41768238     0.05370
H2028       H  0.26372085  0.00293136  0.40097984     0.08600
H2029       H  0.27937502  0.02177196  0.39998054     0.08590
H2030       H  0.31578299  0.96240276  0.46181564     0.08580
H2031       H  0.33251338  0.98024870  0.46032604     0.08580
H2032       H  0.33182629  0.96277693  0.44380959     0.05350
C2033       C  0.93338406  0.28477235  0.49473775    -0.20450
C2034       C  0.94379860  0.29311557  0.50810370    -0.07020
C2035       C  0.93531949  0.30346641  0.52163144     0.13850
C2036       C  0.91670211  0.30596951  0.52094331    -0.20500
C2037       C  0.90633747  0.29837658  0.50713301    -0.07020
C2038       C  0.91468058  0.28738908  0.49399476     0.13840
C2039       C  0.90416720  0.27932373  0.47862034    -0.23850
H2040       H  0.94001725  0.27693040  0.48436030     0.15130
H2041       H  0.91019145  0.31417656  0.53111147     0.15160
C2042       C  0.94581504  0.31180386  0.53691770    -0.23800
H2043       H  0.91303145  0.27203089  0.46904493     0.05370
H2044       H  0.89715310  0.29015433  0.47105971     0.08600
H2045       H  0.89417646  0.26952562  0.48383529     0.08590
H2046       H  0.95519599  0.32221486  0.53173386     0.08580
H2047       H  0.95354163  0.30120869  0.54406959     0.08580
H2048       H  0.93684975  0.31843411  0.54686964     0.05350
C2049       C  0.98229820  0.30064791  0.44186586    -0.20450
C2050       C  0.99746841  0.29314570  0.45014718    -0.07020
C2051       C  0.01218350  0.28761175  0.43948943     0.13850
C2052       C  0.01154540  0.29020445  0.42071791    -0.20500
C2053       C  0.99662980  0.29839032  0.41253184    -0.07020
C2054       C  0.98164062  0.30322901  0.42315699     0.13840
C2055       C  0.96483831  0.31086819  0.41477802    -0.23850
H2056       H  0.97100066  0.30472332  0.45014085     0.15130
H2057       H  0.02299677  0.28649330  0.41248524     0.15160
C2058       C  0.02884545  0.27982458  0.44799912    -0.23800
H2059       H  0.95413518  0.31309411  0.42496606     0.05370
H2060       H  0.95955968  0.30133807  0.40450831     0.08600
H2061       H  0.96778658  0.32402103  0.40831493     0.08590
H2062       H  0.02542634  0.26718042  0.45523740     0.08580
H2063       H  0.03465567  0.28964829  0.45769448     0.08580
H2064       H  0.03926827  0.27664593  0.43777267     0.05350
C2065       C  0.28777977  0.08258409  0.51112249    -0.20450
C2066       C  0.30429099  0.08947056  0.50492401    -0.07020
C2067       C  0.31683616  0.07750568  0.49706575     0.13850
C2068       C  0.31313291  0.05900395  0.49688138    -0.20500
C2069       C  0.29718129  0.05186550  0.50412217    -0.07020
C2070       C  0.28402084  0.06392635  0.51080519     0.13840
C2071       C  0.26629834  0.05731448  0.51807851    -0.23850
H2072       H  0.27796161  0.09181548  0.51670006     0.15130
H2073       H  0.32300044  0.04995562  0.49109572     0.15160
C2074       C  0.33390711  0.08399442  0.48816390    -0.23800
H2075       H  0.25787726  0.06858687  0.52313401     0.05370
H2076       H  0.26862443  0.04784952  0.52942509     0.08600
H2077       H  0.25864019  0.05040334  0.50724328     0.08590
H2078       H  0.34366438  0.08872510  0.49838319     0.08580
H2079       H  0.33083539  0.09498195  0.47848797     0.08580
H2080       H  0.34063558  0.07303289  0.48053130     0.05350
C2081       C  0.43521583  0.20723877  0.51479747    -0.20450
C2082       C  0.44483873  0.19446985  0.50470902    -0.07020
C2083       C  0.43527289  0.18093301  0.49520612     0.13850
C2084       C  0.41654876  0.17992347  0.49692576    -0.20500
C2085       C  0.40701020  0.19208263  0.50774135    -0.07020
C2086       C  0.41640349  0.20618455  0.51650324     0.13840
C2087       C  0.40688467  0.21955788  0.52840670    -0.23850
H2088       H  0.44251680  0.21767555  0.52195818     0.15130
H2089       H  0.40927486  0.16934867  0.48993489     0.15160
C2090       C  0.44455447  0.16761921  0.48297486    -0.23800
H2091       H  0.41648732  0.22886124  0.53513541     0.05370
H2092       H  0.39923607  0.21233791  0.53904375     0.08600
H2093       H  0.39759664  0.22791227  0.52025723     0.08590
H2094       H  0.45309634  0.15833568  0.49095622     0.08580
H2095       H  0.45290550  0.17492874  0.47294328     0.08580
H2096       H  0.43476096  0.15916315  0.47545337     0.05350
C2097       C  0.06415443  0.28057481  0.49718568    -0.20450
C2098       C  0.05420833  0.29441861  0.50537201    -0.07020
C2099       C  0.06347809  0.30915858  0.51326869     0.13850
C2100       C  0.08220851  0.31008506  0.51187020    -0.20500
C2101       C  0.09209295  0.29678012  0.50286534    -0.07020
C2102       C  0.08299682  0.28155916  0.49579771     0.13840
C2103       C  0.09283205  0.26674037  0.48606661    -0.23850
H2104       H  0.05710195  0.26920013  0.49131571     0.15130
H2105       H  0.08922014  0.32151809  0.51767793     0.15160
C2106       C  0.05392702  0.32392592  0.52346377    -0.23800
H2107       H  0.08340475  0.25668050  0.48023318     0.05370
H2108       H  0.10169974  0.25943581  0.49558224     0.08600
H2109       H  0.10091771  0.27248688  0.47488011     0.08590
H2110       H  0.04540658  0.31795210  0.53419837     0.08580
H2111       H  0.04555587  0.33206162  0.51414888     0.08580
H2112       H  0.06353051  0.33334995  0.53002278     0.05350
C2113       C  0.20803566  0.42967098  0.50222814    -0.20450
C2114       C  0.19262681  0.43994262  0.50615377    -0.07020
C2115       C  0.17638173  0.43069071  0.51024911     0.13850
C2116       C  0.17605969  0.41178253  0.50998535    -0.20500
C2117       C  0.19128495  0.40153835  0.50555398    -0.07020
C2118       C  0.20760991  0.41068305  0.50181752     0.13840
C2119       C  0.22452395  0.40078076  0.49673374    -0.23850
H2120       H  0.22052583  0.43654181  0.49913738     0.15130
H2121       H  0.16360537  0.40489912  0.51318775     0.15160
C2122       C  0.15916896  0.44034716  0.51499373    -0.23800
H2123       H  0.23535000  0.41018609  0.49245638     0.05370
H2124       H  0.22183083  0.39145850  0.48534701     0.08600
H2125       H  0.22971292  0.39324069  0.50852024     0.08590
H2126       H  0.15443666  0.44840462  0.50331457     0.08580
H2127       H  0.16136874  0.44919140  0.52685836     0.08580
H2128       H  0.14817689  0.43080865  0.51848712     0.05350
C2129       C  0.25111016  0.26257468  0.49691212    -0.20450
C2130       C  0.23560250  0.25815149  0.50675300    -0.07020
C2131       C  0.23448587  0.24106920  0.51522573     0.13850
C2132       C  0.24878475  0.22889557  0.51340660    -0.20500
C2133       C  0.26425361  0.23328268  0.50350663    -0.07020
C2134       C  0.26542238  0.25039126  0.49510864     0.13840
C2135       C  0.28126729  0.25574062  0.48361817    -0.23850
H2136       H  0.25193994  0.27561470  0.49035889     0.15130
H2137       H  0.24795388  0.21585690  0.51996300     0.15160
C2138       C  0.21871790  0.23570965  0.52682515    -0.23800
H2139       H  0.27893515  0.26877299  0.47662186     0.05370
H2140       H  0.28373118  0.24532808  0.47317065     0.08600
H2141       H  0.29339644  0.25750786  0.49208843     0.08590
H2142       H  0.20660074  0.23363320  0.51841168     0.08580
H2143       H  0.21614774  0.24624121  0.53712592     0.08580
H2144       H  0.22121637  0.22281808  0.53402117     0.05350
C2145       C  0.58162161  0.30953514  0.99797159    -0.20450
C2146       C  0.59180689  0.29599527  0.00625809    -0.07020
C2147       C  0.58300482  0.28019576  0.01241736     0.13850
C2148       C  0.56415068  0.27890332  0.01097969    -0.20500
C2149       C  0.55387292  0.29299271  0.00362255    -0.07020
C2150       C  0.56290323  0.30832875  0.99653076     0.13840
C2151       C  0.55314425  0.32357052  0.98723660    -0.23850
H2152       H  0.58838575  0.32141174  0.99278980     0.15130
H2153       H  0.55735163  0.26708128  0.01622967     0.15160
C2154       C  0.59315135  0.26502476  0.02125469    -0.23800
H2155       H  0.56260831  0.33340644  0.98108831     0.05370
H2156       H  0.54486233  0.33116839  0.99706693     0.08600
H2157       H  0.54454472  0.31814860  0.97627457     0.08590
H2158       H  0.60118853  0.27025660  0.03272505     0.08580
H2159       H  0.60209093  0.25844033  0.01130118     0.08580
H2160       H  0.58393465  0.25447277  0.02653081     0.05350
C2161       C  0.41241312  0.28402211  0.99949268    -0.20450
C2162       C  0.40552399  0.30003719  0.00688550    -0.07020
C2163       C  0.41731840  0.31193383  0.01595084     0.13850
C2164       C  0.43575765  0.30822764  0.01613003    -0.20500
C2165       C  0.44290249  0.29284295  0.00773979    -0.07020
C2166       C  0.43096509  0.28020983  0.99985092     0.13840
C2167       C  0.43760363  0.26301687  0.99137868    -0.23850
H2168       H  0.40326845  0.27465819  0.99300414     0.15130
H2169       H  0.44474797  0.31762162  0.02278802     0.15160
C2170       C  0.41064604  0.32823704  0.02608480    -0.23800
H2171       H  0.42643382  0.25502282  0.98544404     0.05370
H2172       H  0.44423414  0.25451631  0.00173551     0.08600
H2173       H  0.44728975  0.26614961  0.98046785     0.08590
H2174       H  0.39985380  0.32420715  0.03560842     0.08580
H2175       H  0.40555703  0.33856490  0.01661655     0.08580
H2176       H  0.42153452  0.33469234  0.03405868     0.05350
C2177       C  0.56229253  0.98480189  0.31615975    -0.20450
C2178       C  0.55459246  0.99377558  0.30139758    -0.07020
C2179       C  0.56594665  0.00298970  0.28916440     0.13850
C2180       C  0.58452434  0.00394089  0.29275528    -0.20500
C2181       C  0.59193443  0.99599700  0.30825965    -0.07020
C2182       C  0.58074232  0.98567265  0.31971135     0.13840
C2183       C  0.58808009  0.97503373  0.33540317    -0.23850
H2184       H  0.55370151  0.97727466  0.32526894     0.15130
H2185       H  0.59322941  0.01145247  0.28374871     0.15160
C2186       C  0.55856785  0.01244623  0.27280538    -0.23800
H2187       H  0.57765560  0.96618875  0.34149632     0.05370
H2188       H  0.59283790  0.98418911  0.34617401     0.08600
H2189       H  0.59926938  0.96628464  0.33080802     0.08590
H2190       H  0.54856869  0.02272933  0.27696343     0.08580
H2191       H  0.55209351  0.00248058  0.26371119     0.08580
H2192       H  0.56931821  0.01938455  0.26505260     0.05350
C2193       C  0.43706273  0.00610460  0.31958056    -0.20450
C2194       C  0.44377209  0.99770236  0.30402255    -0.07020
C2195       C  0.43144835  0.99033091  0.29147120     0.13850
C2196       C  0.41291665  0.99067442  0.29541600    -0.20500
C2197       C  0.40636531  0.99823642  0.31151063    -0.07020
C2198       C  0.41865965  0.00660468  0.32346124     0.13840
C2199       C  0.41270847  0.01673872  0.34004081    -0.23850
H2200       H  0.44637223  0.01230240  0.32896923     0.15130
H2201       H  0.40350872  0.98460114  0.28605133     0.15160
C2202       C  0.43764435  0.98163259  0.27422641    -0.23800
H2203       H  0.42384197  0.02484474  0.34589267     0.05370
H2204       H  0.40835747  0.00721359  0.35066747     0.08600
H2205       H  0.40168158  0.02620000  0.33660442     0.08590
H2206       H  0.44692493  0.97033380  0.27729408     0.08580
H2207       H  0.44459339  0.99175824  0.26567104     0.08580
H2208       H  0.42620022  0.97612928  0.26632202     0.05350
C2209       C  0.48993820  0.28604463  0.09102194    -0.20450
C2210       C  0.50374933  0.29674518  0.09830818    -0.07020
C2211       C  0.51711610  0.30388106  0.08676410     0.13850
C2212       C  0.51556085  0.30131500  0.06813796    -0.20500
C2213       C  0.50127109  0.29145921  0.06077136    -0.07020
C2214       C  0.48853054  0.28331611  0.07230835     0.13840
C2215       C  0.47303377  0.27253971  0.06486909    -0.23850
H2216       H  0.47983678  0.28040809  0.09993074     0.15130
H2217       H  0.52550708  0.30717970  0.05919433     0.15160
C2218       C  0.53335669  0.31373554  0.09396197    -0.23800
H2219       H  0.46402371  0.26759154  0.07573813     0.05370
H2220       H  0.47819054  0.26064635  0.05742642     0.08600
H2221       H  0.46496940  0.28105152  0.05558799     0.08590
H2222       H  0.54030474  0.30522049  0.10410398     0.08580
H2223       H  0.52938242  0.32669516  0.10017393     0.08580
H2224       H  0.54314524  0.31689803  0.08310713     0.05350
C2225       C  0.50596635  0.40951560  0.21426630    -0.20450
C2226       C  0.49736732  0.40242790  0.19895162    -0.07020
C2227       C  0.48789856  0.41424003  0.18736156     0.13850
C2228       C  0.48830410  0.43280859  0.19073980    -0.20500
C2229       C  0.49762910  0.44003972  0.20550649    -0.07020
C2230       C  0.50622637  0.42819103  0.21771559     0.13840
C2231       C  0.51625599  0.43511046  0.23394407    -0.23850
H2232       H  0.51294386  0.40043023  0.22331399     0.15130
H2233       H  0.48130265  0.44183156  0.18164123     0.15160
C2234       C  0.47670873  0.40750825  0.17178296    -0.23800
H2235       H  0.52274280  0.42400206  0.24158454     0.05370
H2236       H  0.50680863  0.44203195  0.24320857     0.08600
H2237       H  0.52693261  0.44466223  0.22963162     0.08590
H2238       H  0.46743074  0.39672794  0.17642757     0.08580
H2239       H  0.48542912  0.40239222  0.16085370     0.08580
H2240       H  0.46839649  0.41843283  0.16584940     0.05350
C2241       C  0.51510240  0.07819408  0.31230038    -0.20450
C2242       C  0.50077863  0.08833187  0.30539626    -0.07020
C2243       C  0.48705116  0.07959630  0.29548568     0.13850
C2244       C  0.48769625  0.06076775  0.29331048    -0.20500
C2245       C  0.50159083  0.05059792  0.30101753    -0.07020
C2246       C  0.51574049  0.05943963  0.31014768     0.13840
C2247       C  0.53162947  0.04915341  0.31746318    -0.23850
H2248       H  0.52570071  0.08498469  0.31969964     0.15130
H2249       H  0.47690163  0.05386516  0.28630525     0.15160
C2250       C  0.47121620  0.08987149  0.28812820    -0.23800
H2251       H  0.54187249  0.05831492  0.32338754     0.05370
H2252       H  0.53812516  0.04143173  0.30642472     0.08600
H2253       H  0.52724066  0.03970554  0.32818388     0.08590
H2254       H  0.47582479  0.09976787  0.27792030     0.08580
H2255       H  0.46425182  0.09705144  0.29923831     0.08580
H2256       H  0.46132591  0.08077820  0.28153075     0.05350
C2257       C  0.48849101  0.19951238  0.42006861    -0.20450
C2258       C  0.50244269  0.18949929  0.41219726    -0.07020
C2259       C  0.51648118  0.18283668  0.42318229     0.13850
C2260       C  0.51555154  0.18526227  0.44188194    -0.20500
C2261       C  0.50120485  0.19452826  0.44981964    -0.07020
C2262       C  0.48769278  0.20209398  0.43882344     0.13840
C2263       C  0.47206983  0.21214121  0.44689954    -0.23850
H2264       H  0.47786014  0.20477225  0.41158007     0.15130
H2265       H  0.52604993  0.17980026  0.45042064     0.15160
C2266       C  0.53275158  0.17367464  0.41528108    -0.23800
H2267       H  0.46243928  0.21669725  0.43641073     0.05370
H2268       H  0.47701912  0.22423473  0.45418983     0.08600
H2269       H  0.46473589  0.20325696  0.45645218     0.08590
H2270       H  0.53908759  0.18259913  0.40506723     0.08580
H2271       H  0.52892285  0.16071155  0.40894596     0.08580
H2272       H  0.54299092  0.17065982  0.42575068     0.05350
C2273       C  0.48428374  0.25857372  0.25440469    -0.20450
C2274       C  0.49910472  0.25945718  0.24276959    -0.07020
C2275       C  0.51345781  0.24718741  0.24495964     0.13850
C2276       C  0.51238625  0.23398686  0.25847153    -0.20500
C2277       C  0.49747337  0.23297973  0.26997080    -0.07020
C2278       C  0.48323101  0.24538626  0.26793561     0.13840
C2279       C  0.46661045  0.24429148  0.27948543    -0.23850
H2280       H  0.47331519  0.26801753  0.25263129     0.15130
H2281       H  0.52331791  0.22448742  0.26020569     0.15160
C2282       C  0.53017404  0.24836798  0.23354797    -0.23800
H2283       H  0.45645564  0.25450052  0.27548554     0.05370
H2284       H  0.47012622  0.24673202  0.29379483     0.08600
H2285       H  0.46038133  0.23073511  0.27812544     0.08590
H2286       H  0.53619840  0.26202755  0.23479497     0.08580
H2287       H  0.52687299  0.24567110  0.21924060     0.08580
H2288       H  0.54043695  0.23836452  0.23778874     0.05350
C2289       C  0.41381538  0.78566933  0.50095121    -0.20450
C2290       C  0.40688977  0.80134334  0.50905459    -0.07020
C2291       C  0.41896801  0.81332506  0.51776714     0.13850
C2292       C  0.43746929  0.81004592  0.51687811    -0.20500
C2293       C  0.44451068  0.79496463  0.50793484    -0.07020
C2294       C  0.43244958  0.78222979  0.50040251     0.13840
C2295       C  0.43901781  0.76528059  0.49140202    -0.23850
H2296       H  0.40462535  0.77623501  0.49464608     0.15130
H2297       H  0.44659345  0.81951071  0.52325475     0.15160
C2298       C  0.41275293  0.82929633  0.52869728    -0.23800
H2299       H  0.42774995  0.75718274  0.48580532     0.05370
H2300       H  0.44619389  0.75673181  0.50134662     0.08600
H2301       H  0.44819869  0.76874792  0.48015821     0.08590
H2302       H  0.40143238  0.82536663  0.53761959     0.08580
H2303       H  0.40881843  0.84053231  0.51970719     0.08580
H2304       H  0.42365404  0.83456201  0.53748473     0.05350
C2305       C  0.28737784  0.90962565  0.50940225    -0.20450
C2306       C  0.30324710  0.90300850  0.50150157    -0.07020
C2307       C  0.31519459  0.91530872  0.49313615     0.13850
C2308       C  0.31172966  0.93378127  0.49422776    -0.20500
C2309       C  0.29648332  0.94056838  0.50303580    -0.06540
C2310       C  0.28377321  0.92828013  0.51019593     0.13840
C2311       C  0.26677729  0.93465690  0.51915328    -0.23850
H2312       H  0.27798832  0.90018778  0.51541026     0.15130
H2313       H  0.32123647  0.94307869  0.48819553     0.15160
C2314       C  0.33132105  0.90930774  0.48236033    -0.23800
H2315       H  0.25869349  0.92321840  0.52445492     0.05370
H2316       H  0.25832943  0.94201647  0.50925867     0.08600
H2317       H  0.27012589  0.94368112  0.53060662     0.08590
H2318       H  0.32744439  0.89839232  0.47288855     0.08580
H2319       H  0.34222451  0.90473668  0.49140970     0.08580
H2320       H  0.33697368  0.92052034  0.47419178     0.05350
C2321       C  0.08503107  0.70856223  0.49654953    -0.20450
C2322       C  0.09254202  0.69302213  0.50437059    -0.07020
C2323       C  0.08137636  0.68144335  0.51461018     0.13850
C2324       C  0.06288747  0.68479754  0.51535223    -0.20500
C2325       C  0.05508024  0.69949542  0.50636732    -0.07020
C2326       C  0.06640039  0.71197823  0.49743141     0.13840
C2327       C  0.05892929  0.72843680  0.48822955    -0.23850
H2328       H  0.09368863  0.71772683  0.48917118     0.15130
H2329       H  0.05434200  0.67557646  0.52280414     0.15160
C2330       C  0.08875615  0.66582118  0.52533145    -0.23800
H2331       H  0.06965367  0.73644870  0.48154403     0.05370
H2332       H  0.05230259  0.73726966  0.49830595     0.08600
H2333       H  0.04903081  0.72435147  0.47779978     0.08590
H2334       H  0.10004229  0.67046952  0.53395621     0.08580
H2335       H  0.09334446  0.65492133  0.51626610     0.08580
H2336       H  0.07839202  0.65983352  0.53430612     0.05350
C2337       C  0.19453951  0.57946591  0.48757425    -0.20450
C2338       C  0.19350896  0.58887007  0.50392085    -0.07020
C2339       C  0.19507471  0.57938722  0.52035596     0.13850
C2340       C  0.19724272  0.56056866  0.52004584    -0.20500
C2341       C  0.19795909  0.55115853  0.50368930    -0.07020
C2342       C  0.19684175  0.56068557  0.48727852     0.13840
C2343       C  0.19785502  0.55097553  0.46950235    -0.23850
H2344       H  0.19331976  0.58683460  0.47501687     0.15130
H2345       H  0.19782889  0.55309537  0.53259259     0.15160
C2346       C  0.19363888  0.58898542  0.53817713    -0.23800
H2347       H  0.19668824  0.56041298  0.45793939     0.05370
H2348       H  0.18683538  0.54090935  0.46849264     0.08600
H2349       H  0.21098060  0.54399237  0.46848831     0.08590
H2350       H  0.18048400  0.59598660  0.53908831     0.08580
H2351       H  0.20464264  0.59902472  0.53945250     0.08580
H2352       H  0.19466155  0.57946974  0.54969261     0.05350
C2353       C  0.23349747  0.74766742  0.51487350    -0.20450
C2354       C  0.23716015  0.73085759  0.50700078    -0.07020
C2355       C  0.25393436  0.72823923  0.49832597     0.13850
C2356       C  0.26641535  0.74247437  0.49781003    -0.20500
C2357       C  0.26265646  0.75931605  0.50554518    -0.07020
C2358       C  0.24595433  0.76189526  0.51432391     0.13840
C2359       C  0.24126557  0.77925688  0.52376863    -0.23850
H2360       H  0.22073829  0.74968650  0.52162381     0.15130
H2361       H  0.27920897  0.74049142  0.49110723     0.15160
C2362       C  0.25869817  0.71086607  0.48895814    -0.23800
H2363       H  0.22863003  0.77799734  0.53164512     0.05370
H2364       H  0.23908554  0.79013823  0.51379112     0.08600
H2365       H  0.25214455  0.78307328  0.53327661     0.08590
H2366       H  0.24788666  0.70699484  0.47939512     0.08580
H2367       H  0.26086581  0.70004686  0.49900958     0.08580
H2368       H  0.27137502  0.71212430  0.48114668     0.05350
C2369       C  0.98286324  0.69512303  0.42174809    -0.20450
C2370       C  0.99915067  0.69364625  0.41237265    -0.07020
C2371       C  0.01558081  0.69538821  0.42173239     0.13850
C2372       C  0.01537422  0.69796149  0.44047585    -0.20500
C2373       C  0.99909417  0.69883166  0.44992015    -0.07020
C2374       C  0.98265602  0.69769850  0.44049521     0.13840
C2375       C  0.96496314  0.69874824  0.45032315    -0.23850
H2376       H  0.97031086  0.69376277  0.41444753     0.15130
H2377       H  0.02792749  0.69878925  0.44785867     0.15160
C2378       C  0.03328006  0.69412320  0.41197562    -0.23800
H2379       H  0.95337736  0.69761917  0.44094537     0.05370
H2380       H  0.96396056  0.71185712  0.45748134     0.08600
H2381       H  0.96399095  0.68762378  0.46029687     0.08590
H2382       H  0.03409084  0.70485801  0.40157189     0.08580
H2383       H  0.03446022  0.68074735  0.40536936     0.08580
H2384       H  0.04484604  0.69578757  0.42130107     0.05350
C2385       C  0.00958645  0.58106745  0.29734168    -0.20450
C2386       C  0.99654435  0.58851108  0.30881881    -0.07020
C2387       C  0.98319540  0.57717069  0.31632100     0.13850
C2388       C  0.98400268  0.55854706  0.31322497    -0.20500
C2389       C  0.99755426  0.55097996  0.30253755    -0.07020
C2390       C  0.01028948  0.56236840  0.29414848     0.13840
C2391       C  0.02513442  0.55475825  0.28266388    -0.23850
H2392       H  0.01966818  0.58982818  0.29142916     0.15130
H2393       H  0.97407427  0.54975463  0.31935563     0.15160
C2394       C  0.96775279  0.58461437  0.32715612    -0.23800
H2395       H  0.03424417  0.56549849  0.27758142     0.05370
H2396       H  0.01932542  0.54765703  0.27085275     0.08600
H2397       H  0.03326495  0.54513967  0.29071866     0.08590
H2398       H  0.96064247  0.59510700  0.31921715     0.08580
H2399       H  0.97265998  0.59049398  0.33995680     0.08580
H2400       H  0.95784107  0.57395676  0.33066576     0.05350
C2401       C  0.01170028  0.78835073  0.09066525    -0.20450
C2402       C  0.99729560  0.79746238  0.09876817    -0.07020
C2403       C  0.98258671  0.80305084  0.08809466     0.13850
C2404       C  0.98318746  0.80046808  0.06939719    -0.20500
C2405       C  0.99798299  0.79221408  0.06117611    -0.07020
C2406       C  0.01225595  0.78574496  0.07190405     0.13840
C2407       C  0.02843247  0.77699284  0.06348757    -0.23850
H2408       H  0.02289324  0.78398830  0.09893795     0.15130
H2409       H  0.97217848  0.80519251  0.06107289     0.15160
C2410       C  0.96610210  0.81144781  0.09637606    -0.23800
H2411       H  0.03854547  0.77303810  0.07376273     0.05370
H2412       H  0.03491243  0.78657138  0.05398065     0.08600
H2413       H  0.02424472  0.76467096  0.05609939     0.08590
H2414       H  0.96952797  0.82455131  0.10267993     0.08580
H2415       H  0.96043850  0.80223818  0.10673336     0.08580
H2416       H  0.95549805  0.81399402  0.08615159     0.05350
C2417       C  0.01309119  0.93202420  0.19857635    -0.20450
C2418       C  0.99819162  0.94002919  0.20685358    -0.07020
C2419       C  0.98406220  0.92907669  0.21333634     0.13850
C2420       C  0.98490439  0.91030717  0.21081980    -0.20500
C2421       C  0.99946878  0.90238520  0.20181435    -0.07020
C2422       C  0.01399220  0.91330039  0.19611195     0.13840
C2423       C  0.03064041  0.90524492  0.18782363    -0.23850
H2424       H  0.02401177  0.94051529  0.19388696     0.15130
H2425       H  0.97384306  0.90186039  0.21524621     0.15160
C2426       C  0.96774476  0.93724840  0.22205325    -0.23800
H2427       H  0.04107439  0.91565184  0.18519623     0.05370
H2428       H  0.02736015  0.89875028  0.17478900     0.08600
H2429       H  0.03645605  0.89507440  0.19713057     0.08590
H2430       H  0.96117806  0.94665137  0.21245237     0.08580
H2431       H  0.97177423  0.94470622  0.23437587     0.08580
H2432       H  0.95775612  0.92681425  0.22598336     0.05350
C2433       C  0.01455541  0.75314236  0.24931831    -0.20450
C2434       C  0.99809380  0.75901736  0.24228753    -0.07020
C2435       C  0.98188580  0.75141434  0.24862112     0.13850
C2436       C  0.98250249  0.73798232  0.26193824    -0.20500
C2437       C  0.99896487  0.73213481  0.26899558    -0.07020
C2438       C  0.01516864  0.73976667  0.26268746     0.13840
C2439       C  0.03304610  0.73374841  0.27005066    -0.23850
H2440       H  0.02693119  0.75906256  0.24434104     0.15130
H2441       H  0.97012919  0.73203288  0.26688761     0.15160
C2442       C  0.96401103  0.75743925  0.24125702    -0.23800
H2443       H  0.04439944  0.74106476  0.26362075     0.05370
H2444       H  0.03484981  0.71910267  0.26754454     0.08600
H2445       H  0.03358485  0.73632086  0.28477742     0.08590
H2446       H  0.96350316  0.75493540  0.22651656     0.08580
H2447       H  0.96217814  0.77206943  0.24382792     0.08580
H2448       H  0.95265886  0.75007760  0.24763757     0.05350
C2449       C  0.31579822  0.57834444  0.01386417    -0.20450
C2450       C  0.30216655  0.58903928  0.00648781    -0.07020
C2451       C  0.28632858  0.58057525  0.00001465     0.13850
C2452       C  0.28499191  0.56160149  0.00043826    -0.20500
C2453       C  0.29906060  0.55086264  0.00710897    -0.07020
C2454       C  0.31453860  0.55952211  0.01434843     0.13840
C2455       C  0.32987720  0.54928162  0.02290020    -0.23850
H2456       H  0.32773758  0.58481832  0.01920615     0.15130
H2457       H  0.27308231  0.55510800  0.99506038     0.15160
C2458       C  0.27112334  0.59125098  0.99193872    -0.23800
H2459       H  0.33988427  0.55845091  0.02920931     0.05370
H2460       H  0.33718220  0.54135472  0.01255894     0.08600
H2461       H  0.32466883  0.54024935  0.03363867     0.08590
H2462       H  0.27623749  0.59999111  0.98092594     0.08580
H2463       H  0.26463311  0.59959474  0.00246311     0.08580
H2464       H  0.26056548  0.58232664  0.98620814     0.05350
C2465       C  0.08414862  0.78361226  0.01364293    -0.20450
C2466       C  0.09163256  0.79950878  0.00652473    -0.07020
C2467       C  0.08040137  0.81163074  0.99706784     0.13850
C2468       C  0.06187681  0.80836165  0.99642914    -0.20500
C2469       C  0.05412641  0.79314425  0.00462222    -0.07020
C2470       C  0.06552969  0.78018635  0.01271072     0.13840
C2471       C  0.05824380  0.76303889  0.02078090    -0.23850
H2472       H  0.09286720  0.77404199  0.02037431     0.15130
H2473       H  0.05329320  0.81796762  0.98956814     0.15160
C2474       C  0.08775706  0.82769760  0.98697513    -0.23800
H2475       H  0.06904236  0.75474443  0.02693971     0.05370
H2476       H  0.05170607  0.75481031  0.01013669     0.08600
H2477       H  0.04832554  0.76623838  0.03143087     0.08590
H2478       H  0.09879386  0.82337783  0.97788987     0.08580
H2479       H  0.09269495  0.83808022  0.99647135     0.08580
H2480       H  0.07728571  0.83421390  0.97852891     0.05350
C2481       C  0.17796753  0.91253221  0.00281875    -0.20450
C2482       C  0.19316534  0.90199764  0.00646271    -0.07020
C2483       C  0.20986503  0.91075973  0.00936617     0.13850
C2484       C  0.21068713  0.92974236  0.00892841    -0.20500
C2485       C  0.19531175  0.94031802  0.00573390    -0.07020
C2486       C  0.17866847  0.93139325  0.00249189     0.13840
C2487       C  0.16136189  0.94130266  0.99861431    -0.23850
H2488       H  0.16523696  0.90590593  0.00023167     0.15130
H2489       H  0.22346178  0.93635685  0.01134581     0.15160
C2490       C  0.22677827  0.90043776  0.01355895    -0.23800
H2491       H  0.15001272  0.93194158  0.99587349     0.05370
H2492       H  0.16299779  0.94995128  0.98651249     0.08600
H2493       H  0.15743432  0.94955735  0.01045102     0.08590
H2494       H  0.23116295  0.89278540  0.00152552     0.08580
H2495       H  0.22445023  0.89114690  0.02505404     0.08580
H2496       H  0.23803044  0.90957576  0.01727468     0.05350
C2497       C  0.23243294  0.74294199  0.99558629    -0.20450
C2498       C  0.23529054  0.75951348  0.00424271    -0.07020
C2499       C  0.25107127  0.76201258  0.01463171     0.13850
C2500       C  0.26359595  0.74794118  0.01583271    -0.20500
C2501       C  0.26076036  0.73138565  0.00713596    -0.07020
C2502       C  0.24494521  0.72886381  0.99680319     0.13840
C2503       C  0.24136381  0.71177744  0.98639293    -0.23850
H2504       H  0.22033588  0.74105120  0.98765504     0.15130
H2505       H  0.27569485  0.74983202  0.02376158     0.15160
C2506       C  0.25459806  0.77906755  0.02511089    -0.23800
H2507       H  0.22936810  0.71306905  0.97757309     0.05370
H2508       H  0.23864384  0.70048465  0.99577259     0.08600
H2509       H  0.25303973  0.70855066  0.97766725     0.08590
H2510       H  0.24288374  0.78225204  0.03380196     0.08580
H2511       H  0.25733881  0.79039720  0.01578430     0.08580
H2512       H  0.26656073  0.77775418  0.03397289     0.05350
C2513       C  0.43269589  0.71020218  0.99765344    -0.20450
C2514       C  0.44299400  0.69723218  0.00679560    -0.07020
C2515       C  0.43401886  0.68300967  0.01592605     0.13850
C2516       C  0.41527378  0.68161578  0.01478586    -0.20500
C2517       C  0.40502505  0.69396219  0.00486041    -0.07020
C2518       C  0.41382092  0.70873508  0.99650756     0.13840
C2519       C  0.40362649  0.72249296  0.98564610    -0.23850
H2520       H  0.43950051  0.72117352  0.99080623     0.15130
H2521       H  0.40853782  0.67054720  0.02154869     0.15160
C2522       C  0.44393591  0.66927501  0.02717675    -0.23800
H2523       H  0.41281310  0.73222105  0.97893356     0.05370
H2524       H  0.39465956  0.73037497  0.99457603     0.08600
H2525       H  0.39559529  0.71567320  0.97503229     0.08590
H2526       H  0.45255145  0.67623298  0.03721833     0.08580
H2527       H  0.45226928  0.66047938  0.01846192     0.08580
H2528       H  0.43456500  0.66032539  0.03466874     0.05350
C2529       C  0.48869300  0.78877823  0.41983418    -0.20450
C2530       C  0.50145893  0.80047522  0.41219750    -0.07020
C2531       C  0.51444558  0.80874452  0.42341713     0.13850
C2532       C  0.51359229  0.80604390  0.44208473    -0.20500
C2533       C  0.50034847  0.79502908  0.44981843    -0.07020
C2534       C  0.48794416  0.78598769  0.43856977     0.13840
C2535       C  0.47335855  0.77422797  0.44632725    -0.23850
H2536       H  0.47886442  0.78233365  0.41117034     0.15130
H2537       H  0.52331420  0.81264423  0.45076390     0.15160
C2538       C  0.52960151  0.81993407  0.41581265    -0.23800
H2539       H  0.46445267  0.76867514  0.43566397     0.05370
H2540       H  0.46497075  0.78229302  0.45568909     0.08600
H2541       H  0.47939604  0.76271032  0.45369766     0.08590
H2542       H  0.52434478  0.83243253  0.40960194     0.08580
H2543       H  0.53704883  0.81199383  0.40556964     0.08580
H2544       H  0.53930806  0.82403280  0.42643252     0.05350
C2545       C  0.48749653  0.92957089  0.29241734    -0.20450
C2546       C  0.49986598  0.93984262  0.30235758    -0.07020
C2547       C  0.51253607  0.93100905  0.31347599     0.13850
C2548       C  0.51177085  0.91222584  0.31525668    -0.20500
C2549       C  0.49882662  0.90197342  0.30608728    -0.07020
C2550       C  0.48674723  0.91068905  0.29420981     0.13840
C2551       C  0.47245177  0.90035529  0.28418567    -0.23850
H2552       H  0.47792818  0.93641388  0.28378590     0.15130
H2553       H  0.52121098  0.90547852  0.32410568     0.15160
C2554       C  0.52714754  0.94125202  0.32321976    -0.23800
H2555       H  0.46352366  0.90946744  0.27638766     0.05370
H2556       H  0.46398813  0.89268856  0.29384956     0.08600
H2557       H  0.47877329  0.89092376  0.27450278     0.08590
H2558       H  0.52123649  0.95030917  0.33350927     0.08580
H2559       H  0.53504980  0.94932555  0.31340321     0.08580
H2560       H  0.53657111  0.93204289  0.33028186     0.05350
C2561       C  0.51374620  0.69903026  0.08977411    -0.20450
C2562       C  0.49803587  0.69320013  0.09847276    -0.07020
C2563       C  0.48217486  0.69042658  0.08838470     0.13850
C2564       C  0.48257440  0.69282785  0.06965175    -0.20500
C2565       C  0.49843236  0.69797322  0.06087635    -0.07020
C2566       C  0.51415303  0.70133768  0.07098262     0.13840
C2567       C  0.53146550  0.70661778  0.06184467    -0.23850
H2568       H  0.52587613  0.70108497  0.09761333     0.15130
H2569       H  0.47055043  0.69040123  0.06176907     0.15160
C2570       C  0.46482237  0.68502566  0.09737538    -0.23800
H2571       H  0.54255774  0.70846642  0.07169790     0.05370
H2572       H  0.52960862  0.71949824  0.05445830     0.08600
H2573       H  0.53551087  0.69594767  0.05216329     0.08590
H2574       H  0.46111355  0.69526576  0.10763334     0.08580
H2575       H  0.46635812  0.67171119  0.10400391     0.08580
H2576       H  0.45360888  0.68397728  0.08754105     0.05350
C2577       C  0.51203167  0.58089137  0.21177688    -0.20450
C2578       C  0.49787154  0.58850386  0.20185965    -0.07020
C2579       C  0.48376179  0.57733658  0.19562591     0.13850
C2580       C  0.48477114  0.55868269  0.19843500    -0.20500
C2581       C  0.49936412  0.55096403  0.20751826    -0.07020
C2582       C  0.51300356  0.56216487  0.21457379     0.13840
C2583       C  0.52904063  0.55430344  0.22406058    -0.23850
H2584       H  0.52275443  0.58953161  0.21664332     0.15130
H2585       H  0.47421704  0.54999098  0.19328449     0.15160
C2586       C  0.46740363  0.58500894  0.18641223    -0.23800
H2587       H  0.53861376  0.56492623  0.22849112     0.05370
H2588       H  0.53622903  0.54512105  0.21472063     0.08600
H2589       H  0.52460542  0.54668741  0.23614887     0.08590
H2590       H  0.47113820  0.59114583  0.17333146     0.08580
H2591       H  0.46110986  0.59536700  0.19516854     0.08580
H2592       H  0.45717426  0.57443574  0.18364189     0.05350
C2593       C  0.48427204  0.73711283  0.24871296    -0.20450
C2594       C  0.50100492  0.73135674  0.24226262    -0.07020
C2595       C  0.51694948  0.73876452  0.24943275     0.13850
C2596       C  0.51580783  0.75194449  0.26294361    -0.20500
C2597       C  0.49907655  0.75775610  0.26934243    -0.07020
C2598       C  0.48313002  0.75029996  0.26222075     0.13840
C2599       C  0.46497740  0.75632166  0.26885340    -0.23850
H2600       H  0.47210516  0.73130328  0.24312514     0.15130
H2601       H  0.52797361  0.75779059  0.26849235     0.15160
C2602       C  0.53510268  0.73275451  0.24279166    -0.23800
H2603       H  0.45388223  0.74912356  0.26186137     0.05370
H2604       H  0.46333711  0.77100083  0.26641426     0.08600
H2605       H  0.46380404  0.75360112  0.28351844     0.08590
H2606       H  0.53630177  0.73554532  0.22814216     0.08580
H2607       H  0.53671755  0.71806052  0.24516164     0.08580
H2608       H  0.54619790  0.73990210  0.24983369     0.05350
C2609       C  0.31102157  0.50840933  0.92186102    -0.20450
C2610       C  0.30153657  0.49553686  0.91178641    -0.07020
C2611       C  0.28952687  0.48368749  0.92064393     0.13850
C2612       C  0.28786228  0.48458368  0.93950363    -0.20500
C2613       C  0.29807500  0.49687957  0.94962496    -0.07020
C2614       C  0.30935337  0.50933332  0.94064524     0.13840
C2615       C  0.31939088  0.52385252  0.95074824    -0.23850
H2616       H  0.32001199  0.51764157  0.91497720     0.15130
H2617       H  0.27911647  0.47516105  0.94645045     0.15160
C2618       C  0.27922676  0.46947635  0.91043685    -0.23800
H2619       H  0.32660250  0.53311054  0.94145347     0.05370
H2620       H  0.32954040  0.51775973  0.95982839     0.08600
H2621       H  0.30978646  0.53201008  0.95878960     0.08590
H2622       H  0.28871123  0.46067291  0.90297049     0.08580
H2623       H  0.26983907  0.47595068  0.90081184     0.08580
H2624       H  0.27115091  0.46082027  0.91959854     0.05350
C2625       C  0.41724899  0.50404284  0.82445216    -0.20450
C2626       C  0.40710561  0.49577365  0.81081192    -0.07020
C2627       C  0.41618312  0.48870148  0.79557543     0.13850
C2628       C  0.43509557  0.48942856  0.79490375    -0.20500
C2629       C  0.44522316  0.49690299  0.80904172    -0.07020
C2630       C  0.43604534  0.50467211  0.82388667     0.13840
C2631       C  0.44573916  0.51391343  0.83921472    -0.23850
H2632       H  0.41038710  0.50993889  0.83589763     0.15130
H2633       H  0.44204699  0.48366112  0.78344251     0.15160
C2634       C  0.40630934  0.47975399  0.78027446    -0.23800
H2635       H  0.43625483  0.52042151  0.84875697     0.05370
H2636       H  0.45474989  0.52459459  0.83385955     0.08600
H2637       H  0.45360377  0.50394209  0.84708790     0.08590
H2638       H  0.39838319  0.48991459  0.77275716     0.08580
H2639       H  0.39738845  0.46894564  0.78550619     0.08580
H2640       H  0.41571201  0.47350813  0.77048010     0.05350
C2641       C  0.08444809  0.50136271  0.71791089    -0.20450
C2642       C  0.09163715  0.49196452  0.70312124    -0.07020
C2643       C  0.08003989  0.48130860  0.69234260     0.13850
C2644       C  0.06155115  0.48177580  0.69555633    -0.20500
C2645       C  0.05418041  0.49212234  0.70951143    -0.07020
C2646       C  0.06582255  0.50149514  0.72132588     0.13840
C2647       C  0.05873064  0.51218571  0.73702890    -0.23850
H2648       H  0.09336783  0.50913005  0.72647222     0.15130
H2649       H  0.05268883  0.47419177  0.68677450     0.15160
C2650       C  0.08682114  0.46888837  0.67775118    -0.23800
H2651       H  0.06970935  0.51907879  0.74449634     0.05370
H2652       H  0.05175210  0.50303988  0.74659969     0.08600
H2653       H  0.04921341  0.52262719  0.73219302     0.08590
H2654       H  0.09841005  0.46091627  0.68275234     0.08580
H2655       H  0.09062808  0.47667000  0.66560822     0.08580
H2656       H  0.07629093  0.45915380  0.67345326     0.05350
C2657       C  0.20572131  0.48892787  0.59054302    -0.20450
C2658       C  0.19137323  0.49851158  0.59825909    -0.07020
C2659       C  0.18003919  0.50885073  0.58690584     0.13850
C2660       C  0.18252201  0.50818584  0.56822358    -0.20500
C2661       C  0.19620060  0.49783511  0.56039551    -0.07020
C2662       C  0.20834006  0.48849703  0.57174657     0.13840
C2663       C  0.22362826  0.47755309  0.56420622    -0.23850
H2664       H  0.21463099  0.48131650  0.59923365     0.15130
H2665       H  0.17357009  0.51582196  0.55958818     0.15160
C2666       C  0.16570600  0.52125461  0.59417225    -0.23800
H2667       H  0.23131194  0.47061381  0.57500066     0.05370
H2668       H  0.23312305  0.48651159  0.55690159     0.08600
H2669       H  0.21833348  0.46711479  0.55487944     0.08590
H2670       H  0.17128649  0.52975146  0.60514794     0.08580
H2671       H  0.15402465  0.51340931  0.59907624     0.08580
H2672       H  0.16053464  0.53047895  0.58358362     0.05350
C2673       C  0.25099012  0.50589765  0.73896156    -0.20450
C2674       C  0.23559334  0.49538700  0.74211848    -0.07020
C2675       C  0.23463375  0.48485189  0.75802173     0.13850
C2676       C  0.24892794  0.48540648  0.77035297    -0.20500
C2677       C  0.26425044  0.49603486  0.76727408    -0.07020
C2678       C  0.26530187  0.50642505  0.75129446     0.13840
C2679       C  0.28100879  0.51867234  0.74734782    -0.23850
H2680       H  0.25174033  0.51396715  0.72680493     0.15130
H2681       H  0.24817370  0.47734463  0.78251793     0.15160
C2682       C  0.21904460  0.47243066  0.76192798    -0.23800
H2683       H  0.27855327  0.52716023  0.73526495     0.05370
H2684       H  0.29319038  0.51058708  0.74453695     0.08600
H2685       H  0.28343338  0.52783970  0.75891823     0.08590
H2686       H  0.21648665  0.46350983  0.75019546     0.08580
H2687       H  0.20687007  0.48036086  0.76515811     0.08580
H2688       H  0.22173885  0.46367116  0.77376480     0.05350
C2689       C  0.28660477  0.00224874  0.59145555    -0.20450
C2690       C  0.30238692  0.99469671  0.59859561    -0.07020
C2691       C  0.31449743  0.98583900  0.58693276     0.13850
C2692       C  0.31123053  0.98599035  0.56836780    -0.20500
C2693       C  0.29609357  0.99456417  0.56097324    -0.07020
C2694       C  0.28326657  0.00230223  0.57275615     0.13840
C2695       C  0.26645000  0.01118079  0.56578725    -0.23850
H2696       H  0.27712984  0.00864897  0.60051519     0.15130
H2697       H  0.32076899  0.97943806  0.55948632     0.15160
C2698       C  0.33060242  0.97564558  0.59391061    -0.23800
H2699       H  0.25828361  0.01699838  0.57687805     0.05370
H2700       H  0.25797503  0.00109141  0.55869814     0.08600
H2701       H  0.27003936  0.02227215  0.55640037     0.08590
H2702       H  0.32627452  0.96573569  0.60426027     0.08580
H2703       H  0.34059679  0.98503949  0.59976263     0.08580
H2704       H  0.33750747  0.96809723  0.58300286     0.05350
C2705       C  0.08113006  0.98959982  0.82398695    -0.20450
C2706       C  0.09177647  0.99420811  0.80907802    -0.07020
C2707       C  0.08311758  0.99811588  0.79250512     0.13850
C2708       C  0.06417412  0.99788411  0.79161953    -0.20500
C2709       C  0.05353693  0.99408927  0.80684289    -0.07020
C2710       C  0.06232839  0.98973826  0.82329795     0.13840
C2711       C  0.05234044  0.98534536  0.84048255    -0.23850
H2712       H  0.08760792  0.98609643  0.83657544     0.15130
H2713       H  0.05763115  0.00109771  0.77897609     0.15160
C2714       C  0.09348903  0.00313293  0.77581969    -0.23800
H2715       H  0.06157605  0.98157555  0.85162056     0.05370
H2716       H  0.04314314  0.97377961  0.83831972     0.08600
H2717       H  0.04468014  0.99730718  0.84511729     0.08590
H2718       H  0.10109814  0.99128991  0.77088398     0.08580
H2719       H  0.10275713  0.01451012  0.77873605     0.08580
H2720       H  0.08444308  0.00740533  0.76470652     0.05350
C2721       C  0.20833002  0.00310198  0.92007312    -0.20450
C2722       C  0.19326591  0.99436111  0.91266507    -0.07020
C2723       C  0.18214239  0.98384583  0.92402280     0.13850
C2724       C  0.18519268  0.98401878  0.94263707    -0.20500
C2725       C  0.19940515  0.99388079  0.95025524    -0.07020
C2726       C  0.21168819  0.00280776  0.93873843     0.13840
C2727       C  0.22795286  0.01248138  0.94598637    -0.23850
H2728       H  0.21723156  0.01062572  0.91127025     0.15130
H2729       H  0.17625341  0.97646978  0.95138847     0.15160
C2730       C  0.16749393  0.97180404  0.91670390    -0.23800
H2731       H  0.23575184  0.01917987  0.93510901     0.05370
H2732       H  0.23697977  0.00271517  0.95279089     0.08600
H2733       H  0.22373140  0.02294437  0.95571647     0.08590
H2734       H  0.17301968  0.96297532  0.90597345     0.08580
H2735       H  0.15625495  0.97990969  0.91129998     0.08580
H2736       H  0.16178840  0.96294566  0.92734485     0.05350
C2737       C  0.23289994  0.00193313  0.75405815    -0.20450
C2738       C  0.23639735  0.99276241  0.77021970    -0.07020
C2739       C  0.25287290  0.98342996  0.77219929     0.13850
C2740       C  0.26526505  0.98350135  0.75794802    -0.20500
C2741       C  0.26172570  0.99255440  0.74172522    -0.07020
C2742       C  0.24532807  0.00207445  0.73982861     0.13840
C2743       C  0.24096896  0.01302091  0.72327988    -0.23850
H2744       H  0.22034000  0.00918741  0.75259810     0.15130
H2745       H  0.27780433  0.97622624  0.75942501     0.15160
C2746       C  0.25733628  0.97274042  0.78888657    -0.23800
H2747       H  0.22867082  0.02127577  0.72520389     0.05370
H2748       H  0.23833291  0.00400356  0.71169045     0.08600
H2749       H  0.25221130  0.02237527  0.72015897     0.08590
H2750       H  0.24627335  0.96317550  0.79200666     0.08580
H2751       H  0.25964381  0.98193412  0.80041445     0.08580
H2752       H  0.26983480  0.96475399  0.78715684     0.05350
C2753       C  0.98937939  0.28775435  0.59124465    -0.20450
C2754       C  0.00240505  0.29934055  0.59860259    -0.07020
C2755       C  0.01540277  0.30720056  0.58712285     0.13850
C2756       C  0.01425124  0.30430781  0.56850301    -0.20500
C2757       C  0.00067394  0.29353310  0.56099567    -0.07020
C2758       C  0.98821808  0.28483385  0.57254972     0.13840
C2759       C  0.97301221  0.27320042  0.56576944    -0.23850
H2760       H  0.97952603  0.28155588  0.60007072     0.15130
H2761       H  0.02398350  0.31065355  0.55966204     0.15160
C2762       C  0.03088761  0.31816049  0.59438986    -0.23800
H2763       H  0.96001329  0.27881725  0.57049822     0.05370
H2764       H  0.97234328  0.27233998  0.55090989     0.08600
H2765       H  0.97449927  0.25933363  0.57121125     0.08590
H2766       H  0.03827568  0.31020936  0.60467522     0.08580
H2767       H  0.02599012  0.33087097  0.60044879     0.08580
H2768       H  0.04056077  0.32188077  0.58360413     0.05350
C2769       C  0.01411850  0.41184543  0.70485119    -0.20450
C2770       C  0.99781068  0.40241578  0.70385199    -0.07020
C2771       C  0.98143262  0.41176737  0.70596832     0.13850
C2772       C  0.98170887  0.43054472  0.70854315    -0.20500
C2773       C  0.99801011  0.44003540  0.70897965    -0.07020
C2774       C  0.01439872  0.43060304  0.70738956     0.13840
C2775       C  0.03212643  0.44043686  0.70790915    -0.23850
H2776       H  0.02663427  0.40456437  0.70316564     0.15130
H2777       H  0.96918381  0.43791555  0.70965416     0.15160
C2778       C  0.96370732  0.40198100  0.70498751    -0.23800
H2779       H  0.04367456  0.43105977  0.70656191     0.05370
H2780       H  0.03350798  0.44774972  0.72089313     0.08600
H2781       H  0.03274877  0.45025566  0.69665360     0.08590
H2782       H  0.96307611  0.39156967  0.71572229     0.08580
H2783       H  0.96228941  0.39536481  0.69164171     0.08580
H2784       H  0.95218247  0.41130310  0.70682601     0.05350
C2785       C  0.98287183  0.07868117  0.81349316    -0.20450
C2786       C  0.99819131  0.08854857  0.80853968    -0.07020
C2787       C  0.01298068  0.07951973  0.80071133     0.13850
C2788       C  0.01224062  0.06070033  0.79846910    -0.20500
C2789       C  0.99717006  0.05081087  0.80408546    -0.07020
C2790       C  0.98213598  0.05991554  0.81125509     0.13840
C2791       C  0.96525822  0.04985413  0.81638259    -0.23850
H2792       H  0.97151266  0.08569457  0.81935778     0.15130
H2793       H  0.02373519  0.05358479  0.79300306     0.15160
C2794       C  0.02988186  0.08952026  0.79564356    -0.23800
H2795       H  0.95456653  0.05912990  0.82116037     0.05370
H2796       H  0.96815023  0.04014549  0.82737173     0.08600
H2797       H  0.96000462  0.04241041  0.80450013     0.08590
H2798       H  0.03541484  0.09654188  0.80764791     0.08580
H2799       H  0.02690148  0.09954939  0.78497404     0.08580
H2800       H  0.04038040  0.08026333  0.79041559     0.05350
C2801       C  0.01354233  0.19553966  0.92178601    -0.20450
C2802       C  0.99725646  0.19237974  0.91278369    -0.07020
C2803       C  0.98102540  0.19193939  0.92262289     0.13850
C2804       C  0.98149669  0.19402641  0.94141261    -0.20500
C2805       C  0.99782976  0.19653508  0.95047409    -0.07020
C2806       C  0.01401401  0.19757010  0.94061096     0.13840
C2807       C  0.03175713  0.20030399  0.95003698    -0.23850
H2808       H  0.02595409  0.19582053  0.91413388     0.15130
H2809       H  0.96913292  0.19331311  0.94911795     0.15160
C2810       C  0.96325443  0.18914845  0.91328924    -0.23800
H2811       H  0.04313447  0.20068836  0.94035457     0.05370
H2812       H  0.03415321  0.18909524  0.95966581     0.08600
H2813       H  0.03158583  0.21325411  0.95753876     0.08590
H2814       H  0.96312077  0.17587933  0.90638203     0.08580
H2815       H  0.96114219  0.19999787  0.90319315     0.08580
H2816       H  0.95185353  0.18944657  0.92294566     0.05350
C2817       C  0.01464259  0.25207435  0.74804262    -0.20450
C2818       C  0.99801569  0.25863411  0.74208074    -0.07020
C2819       C  0.98197308  0.25185296  0.74965224     0.13850
C2820       C  0.98291827  0.23860404  0.76314793    -0.20500
C2821       C  0.99954965  0.23204703  0.76911174    -0.07020
C2822       C  0.01558841  0.23881485  0.76152105     0.13840
C2823       C  0.03364987  0.23210967  0.76774663    -0.23850
H2824       H  0.02689492  0.25739371  0.74216722     0.15130
H2825       H  0.97066636  0.23330003  0.76904002     0.15160
C2826       C  0.96391766  0.25856811  0.74342130    -0.23800
H2827       H  0.04484069  0.23888089  0.76049093     0.05370
H2828       H  0.03468054  0.21737987  0.76529685     0.08600
H2829       H  0.03527001  0.23479033  0.78237714     0.08590
H2830       H  0.96229875  0.25588135  0.72879171     0.08580
H2831       H  0.96289942  0.27330079  0.74586102     0.08580
H2832       H  0.95272161  0.25180728  0.75067935     0.05350
C2833       C  0.43595018  0.99200747  0.68950181    -0.20450
C2834       C  0.44302086  0.99633203  0.70653076    -0.07020
C2835       C  0.43088682  0.00072675  0.72057132     0.13850
C2836       C  0.41231015  0.00173827  0.71679570    -0.20500
C2837       C  0.40542688  0.99830772  0.69944035    -0.07020
C2838       C  0.41752407  0.99276587  0.68576443     0.13840
C2839       C  0.41144329  0.98690612  0.66726848    -0.23850
H2840       H  0.44498631  0.98799061  0.67877892     0.15130
H2841       H  0.40311430  0.00555121  0.72745058     0.15160
C2842       C  0.43727601  0.00464004  0.73942740    -0.23800
H2843       H  0.42224830  0.97965129  0.65992495     0.05370
H2844       H  0.40803568  0.99882773  0.65897052     0.08600
H2845       H  0.39984967  0.97752318  0.66830286     0.08590
H2846       H  0.44671451  0.01624482  0.73930289     0.08580
H2847       H  0.44407588  0.99256958  0.74506512     0.08580
H2848       H  0.42594992  0.00806649  0.74855060     0.05350
C2849       C  0.48616128  0.28667198  0.92029295    -0.20450
C2850       C  0.49984618  0.29714065  0.91250109    -0.07020
C2851       C  0.51361817  0.30427915  0.92354315     0.13850
C2852       C  0.51268051  0.30182239  0.94223342    -0.20500
C2853       C  0.49854543  0.29214031  0.95012693    -0.07020
C2854       C  0.48531522  0.28412649  0.93905693     0.13840
C2855       C  0.46981885  0.27379803  0.94706066    -0.23850
H2856       H  0.47570323  0.28112595  0.91174978     0.15130
H2857       H  0.52299262  0.30760998  0.95079659     0.15160
C2858       C  0.52958355  0.31407814  0.91569816    -0.23800
H2859       H  0.46041968  0.26885950  0.93652185     0.05370
H2860       H  0.46220213  0.28270843  0.95632637     0.08600
H2861       H  0.47489632  0.26193334  0.95461171     0.08590
H2862       H  0.52530816  0.32684633  0.90926856     0.08580
H2863       H  0.53629742  0.30538444  0.90555546     0.08580
H2864       H  0.53964237  0.31754788  0.92621238     0.05350
C2865       C  0.51278704  0.41229815  0.82226746    -0.20450
C2866       C  0.50169599  0.40215476  0.81080735    -0.07020
C2867       C  0.49120078  0.41115356  0.79769406     0.13850
C2868       C  0.49167413  0.43010737  0.79683478    -0.20500
C2869       C  0.50216866  0.44024343  0.80888664    -0.07020
C2870       C  0.51323816  0.43116896  0.82146179     0.13840
C2871       C  0.52588116  0.44119729  0.83383288    -0.23850
H2872       H  0.52102468  0.40537239  0.83212767     0.15130
H2873       H  0.48333613  0.43708615  0.78710059     0.15160
C2874       C  0.47880226  0.40102555  0.78522226    -0.23800
H2875       H  0.53445970  0.43183863  0.84173451     0.05370
H2876       H  0.51816866  0.44942584  0.84360837     0.08600
H2877       H  0.53488795  0.45005298  0.82580031     0.08590
H2878       H  0.46934270  0.39259100  0.79316953     0.08580
H2879       H  0.48672810  0.39237251  0.77601840     0.08580
H2880       H  0.47072593  0.41032037  0.77673518     0.05350
C2881       C  0.51595479  0.07862728  0.70185860    -0.20450
C2882       C  0.50022401  0.08845047  0.70522393    -0.07020
C2883       C  0.48488307  0.07950809  0.71209296     0.13850
C2884       C  0.48546047  0.06075147  0.71477565    -0.20500
C2885       C  0.50095715  0.05087872  0.71061221    -0.07020
C2886       C  0.51653114  0.05992448  0.70458068     0.13840
C2887       C  0.53371887  0.04980452  0.70097559    -0.23850
H2888       H  0.52772451  0.08559123  0.69675394     0.15130
H2889       H  0.47353474  0.05364659  0.71930371     0.15160
C2890       C  0.46762144  0.08950344  0.71558462    -0.23800
H2891       H  0.54474874  0.05900654  0.69678399     0.05370
H2892       H  0.53161849  0.03980193  0.69006053     0.08600
H2893       H  0.53804516  0.04266441  0.71340165     0.08590
H2894       H  0.46300946  0.09618380  0.70301529     0.08580
H2895       H  0.46976491  0.09982152  0.72618698     0.08580
H2896       H  0.45677205  0.08030256  0.72023369     0.05350
C2897       C  0.51586212  0.18369348  0.58809711    -0.20450
C2898       C  0.50138127  0.19018282  0.59828678    -0.07020
C2899       C  0.48712416  0.19925189  0.58951511     0.13850
C2900       C  0.48758040  0.20128230  0.57067307    -0.20500
C2901       C  0.50180669  0.19424473  0.56050126    -0.07020
C2902       C  0.51630049  0.18570394  0.56931593     0.13840
C2903       C  0.53235350  0.17892414  0.55894035    -0.23850
H2904       H  0.52682118  0.17687207  0.59488344     0.15130
H2905       H  0.47648053  0.20776217  0.56377670     0.15160
C2906       C  0.47098641  0.20589979  0.59979424    -0.23800
H2907       H  0.54277619  0.17323612  0.56801790     0.05370
H2908       H  0.53851799  0.19021013  0.55125502     0.08600
H2909       H  0.52819495  0.16815548  0.54943673     0.08590
H2910       H  0.47509491  0.21650872  0.60948112     0.08580
H2911       H  0.46465932  0.19452306  0.60719731     0.08580
H2912       H  0.46070851  0.21180362  0.59068510     0.05350
C2913       C  0.51300546  0.24340080  0.74229235    -0.20450
C2914       C  0.49796681  0.23199348  0.74152519    -0.07020
C2915       C  0.48393726  0.23414187  0.75417203     0.13850
C2916       C  0.48544796  0.24748653  0.76748755    -0.20500
C2917       C  0.50050221  0.25885902  0.76830294    -0.07020
C2918       C  0.51451862  0.25675140  0.75562804     0.13840
C2919       C  0.53137862  0.26800865  0.75656410    -0.23850
H2920       H  0.52376285  0.24161627  0.73260038     0.15130
H2921       H  0.47469741  0.24924238  0.77718907     0.15160
C2922       C  0.46706748  0.22288961  0.75326795    -0.23800
H2923       H  0.54133580  0.26387919  0.74621300     0.05370
H2924       H  0.53773496  0.26645196  0.77001686     0.08600
H2925       H  0.52814861  0.28240305  0.75422780     0.08590
H2926       H  0.47026480  0.20850801  0.75572205     0.08580
H2927       H  0.46074787  0.22436107  0.73978878     0.08580
H2928       H  0.45708382  0.22709702  0.76356002     0.05350
C2929       C  0.98568381  0.69956795  0.58990875    -0.20450
C2930       C  0.00121219  0.69267862  0.59814707    -0.07020
C2931       C  0.01659357  0.68910764  0.58758868     0.13850
C2932       C  0.01580253  0.69164616  0.56888361    -0.20500
C2933       C  0.00008434  0.69784698  0.56056270    -0.07020
C2934       C  0.98490963  0.70210157  0.57114069     0.13840
C2935       C  0.96772198  0.70850724  0.56253669    -0.23850
H2936       H  0.97392946  0.70230408  0.59809556     0.15130
H2937       H  0.02743626  0.68855589  0.56064681     0.15160
C2938       C  0.03392076  0.68285914  0.59604281    -0.23800
H2939       H  0.95703094  0.71086064  0.57270893     0.05370
H2940       H  0.96276729  0.69822698  0.55283740     0.08600
H2941       H  0.97016945  0.72136347  0.55527385     0.08590
H2942       H  0.03198889  0.66953451  0.60254072     0.08580
H2943       H  0.03838778  0.69280538  0.60630450     0.08580
H2944       H  0.04480344  0.68146728  0.58589578     0.05350
C2945       C  0.01502446  0.57866908  0.69756928    -0.20450
C2946       C  0.99967032  0.58842968  0.70252472    -0.07020
C2947       C  0.98506010  0.57934168  0.71069569     0.13850
C2948       C  0.98605563  0.56059628  0.71336370    -0.20500
C2949       C  0.00118426  0.55080860  0.70782804    -0.07020
C2950       C  0.01598827  0.55996090  0.70019428     0.13840
C2951       C  0.03285997  0.55001997  0.69497423    -0.23850
H2952       H  0.02623628  0.58571549  0.69142398     0.15130
H2953       H  0.97468644  0.55342780  0.71907474     0.15160
C2954       C  0.96804699  0.58914622  0.71565405    -0.23800
H2955       H  0.04336006  0.55933409  0.68978512     0.05370
H2956       H  0.02986662  0.54002210  0.68426983     0.08600
H2957       H  0.03840329  0.54292976  0.70692166     0.08590
H2958       H  0.96238683  0.59588298  0.70355346     0.08580
H2959       H  0.97091155  0.59937813  0.72616142     0.08580
H2960       H  0.95767944  0.57980292  0.72106105     0.05350
C2961       C  0.98686468  0.80913281  0.92253985    -0.20450
C2962       C  0.99847582  0.79837460  0.91229829    -0.07020
C2963       C  0.00905445  0.78517268  0.92108209     0.13850
C2964       C  0.00818616  0.78360113  0.93997565    -0.20500
C2965       C  0.99713233  0.79497305  0.95024505    -0.07020
C2966       C  0.98593312  0.80752446  0.94131349     0.13840
C2967       C  0.97247463  0.81883824  0.95137135    -0.23850
H2968       H  0.97849500  0.81898910  0.91576755     0.15130
H2969       H  0.01664195  0.77387679  0.94682187     0.15160
C2970       C  0.02192712  0.77336753  0.91081614    -0.23800
H2971       H  0.96402796  0.82699114  0.94210817     0.05370
H2972       H  0.97943404  0.82835836  0.96055130     0.08600
H2973       H  0.96341029  0.80983690  0.95915211     0.08590
H2974       H  0.03139500  0.78185028  0.90293121     0.08580
H2975       H  0.01438944  0.76432312  0.90162726     0.08580
H2976       H  0.02996912  0.76470708  0.91998009     0.05350
C2977       C  0.01459412  0.91216814  0.80969547    -0.20450
C2978       C  0.99852758  0.90237918  0.80832004    -0.07020
C2979       C  0.98238721  0.91139004  0.80398355     0.13850
C2980       C  0.98259305  0.93020402  0.80167507    -0.20500
C2981       C  0.99858403  0.94003155  0.80363684    -0.07020
C2982       C  0.01481978  0.93092625  0.80727610     0.13840
C2983       C  0.03231291  0.94106764  0.80878829    -0.23850
H2984       H  0.02693566  0.90513061  0.81296305     0.15130
H2985       H  0.97018160  0.93733140  0.79889622     0.15160
C2986       C  0.96489915  0.90124518  0.80247276    -0.23800
H2987       H  0.04378728  0.93189932  0.81151257     0.05370
H2988       H  0.03146673  0.95091152  0.81997295     0.08600
H2989       H  0.03505359  0.94838217  0.79601667     0.08590
H2990       H  0.96189613  0.89436509  0.81542158     0.08580
H2991       H  0.96587849  0.89102748  0.79159393     0.08580
H2992       H  0.95351649  0.91037531  0.79926470     0.05350
C2993       C  0.98452435  0.74649132  0.76860233    -0.20450
C2994       C  0.99866946  0.75900829  0.76832685    -0.07020
C2995       C  0.01197382  0.75778433  0.75479226     0.13850
C2996       C  0.01061920  0.74419164  0.74168866    -0.20500
C2997       C  0.99645250  0.73167948  0.74194664    -0.07020
C2998       C  0.98315748  0.73290826  0.75550111     0.13840
C2999       C  0.96711116  0.72047288  0.75578833    -0.23850
H3000       H  0.97432307  0.74755151  0.77897929     0.15130
H3001       H  0.02082111  0.74314550  0.73130938     0.15160
C3002       C  0.02796920  0.77028403  0.75451833    -0.23800
H3003       H  0.95748469  0.72415039  0.76661307     0.05370
H3004       H  0.97146017  0.70641106  0.75827585     0.08600
H3005       H  0.95989634  0.72123951  0.74270903     0.08590
H3006       H  0.03523891  0.76945461  0.76756435     0.08580
H3007       H  0.02353952  0.78434928  0.75217772     0.08580
H3008       H  0.03755912  0.76672046  0.74362237     0.05350
C3009       C  0.70787742  0.98741947  0.59097849    -0.20450
C3010       C  0.69377835  0.99769944  0.59830761    -0.07020
C3011       C  0.68416802  0.00960849  0.58694287     0.13850
C3012       C  0.68784721  0.00973033  0.56845081    -0.20500
C3013       C  0.70105731  0.99857442  0.56091416    -0.07020
C3014       C  0.71167316  0.98772523  0.57238840     0.13840
C3015       C  0.72640990  0.97591135  0.56507018    -0.23850
H3016       H  0.71557260  0.97865173  0.59974879     0.15130
H3017       H  0.68007557  0.01844486  0.55968501     0.15160
C3018       C  0.67042782  0.02271966  0.59409162    -0.23800
H3019       H  0.73298265  0.96793531  0.57588752     0.05370
H3020       H  0.73688927  0.98439119  0.55858997     0.08600
H3021       H  0.72079082  0.96634248  0.55502927     0.08590
H3022       H  0.67617445  0.03046974  0.60552626     0.08580
H3023       H  0.65812551  0.01551824  0.59841069     0.08580
H3024       H  0.66624160  0.03257233  0.58362933     0.05350
C3025       C  0.58128526  0.98240440  0.69309889    -0.20450
C3026       C  0.59209731  0.99228959  0.70504727    -0.07020
C3027       C  0.58374615  0.00138914  0.71963915     0.13850
C3028       C  0.56483325  0.00116668  0.72111966    -0.20500
C3029       C  0.55407809  0.99221446  0.70838927    -0.07020
C3030       C  0.56252586  0.98225519  0.69447842     0.13840
C3031       C  0.55198394  0.97117189  0.68104506    -0.23850
H3032       H  0.58757228  0.97491592  0.68226830     0.15130
H3033       H  0.55837222  0.00857883  0.73190745     0.15160
C3034       C  0.59440416  0.01196506  0.73327908    -0.23800
H3035       H  0.56092043  0.96298343  0.67229944     0.05370
H3036       H  0.54410218  0.98009195  0.67202226     0.08600
H3037       H  0.54285631  0.96175478  0.68824975     0.08590
H3038       H  0.60312092  0.02197126  0.72637967     0.08580
H3039       H  0.60265344  0.00266387  0.74153017     0.08580
H3040       H  0.58552262  0.01942282  0.74270841     0.05350
C3041       C  0.78702520  0.98872333  0.91929350    -0.20450
C3042       C  0.80286634  0.99602616  0.91198798    -0.07020
C3043       C  0.81490009  0.00540135  0.92337218     0.13850
C3044       C  0.81148952  0.00601456  0.94189334    -0.20500
C3045       C  0.79631790  0.99766139  0.94949577    -0.07020
C3046       C  0.78357129  0.98938999  0.93794557     0.13840
C3047       C  0.76673332  0.98066584  0.94513299    -0.23850
H3048       H  0.77760139  0.98195175  0.91042529     0.15130
H3049       H  0.82098225  0.01290451  0.95058948     0.15160
C3050       C  0.83109291  0.01532335  0.91614174    -0.23800
H3051       H  0.75862025  0.97442628  0.93421346     0.05370
H3052       H  0.75821594  0.99095135  0.95183215     0.08600
H3053       H  0.77029407  0.96991777  0.95490764     0.08590
H3054       H  0.82691338  0.02470297  0.90526375     0.08580
H3055       H  0.84117944  0.00569733  0.91092091     0.08580
H3056       H  0.83784183  0.02342220  0.92676839     0.05350
C3057       C  0.93466539  0.00546789  0.81785680    -0.20450
C3058       C  0.94248830  0.99640455  0.80322576    -0.07020
C3059       C  0.93123197  0.98716690  0.79092611     0.13850
C3060       C  0.91261669  0.98625565  0.79433980    -0.20500
C3061       C  0.90506705  0.99427848  0.80973296    -0.07020
C3062       C  0.91617584  0.00464449  0.82123243     0.13840
C3063       C  0.90871057  0.01538774  0.83677765    -0.23850
H3064       H  0.94318956  0.01304493  0.82698602     0.15130
H3065       H  0.90398826  0.97872445  0.78527751     0.15160
C3066       C  0.93876303  0.97764395  0.77468938    -0.23800
H3067       H  0.91909217  0.02425412  0.84291325     0.05370
H3068       H  0.90384401  0.00630129  0.84756086     0.08600
H3069       H  0.89757632  0.02412542  0.83201415     0.08590
H3070       H  0.94871288  0.96736971  0.77900553     0.08580
H3071       H  0.94534142  0.98757017  0.76562364     0.08580
H3072       H  0.92808191  0.97068909  0.76685297     0.05350
C3073       C  0.76511862  0.00698628  0.75306746    -0.20450
C3074       C  0.76197985  0.99751933  0.76913022    -0.07020
C3075       C  0.74613877  0.98706354  0.77086192     0.13850
C3076       C  0.73381777  0.98661393  0.75657195    -0.20500
C3077       C  0.73687041  0.99618190  0.74054036    -0.07020
C3078       C  0.75279096  0.00653893  0.73876238     0.13840
C3079       C  0.75671462  0.01772044  0.72225807    -0.23850
H3080       H  0.77729601  0.01493522  0.75176148     0.15130
H3081       H  0.72169699  0.97858699  0.75789060     0.15160
C3082       C  0.74233312  0.97574359  0.78730734    -0.23800
H3083       H  0.76871586  0.02644398  0.72419041     0.05370
H3084       H  0.74513578  0.02662818  0.71918996     0.08600
H3085       H  0.75962592  0.00884085  0.71063010     0.08590
H3086       H  0.73949120  0.98450923  0.79903603     0.08580
H3087       H  0.75395932  0.96684667  0.79023288     0.08580
H3088       H  0.73034523  0.96700176  0.78537947     0.05350
C3089       C  0.71228291  0.56072864  0.99467048    -0.20450
C3090       C  0.70061266  0.55082979  0.00578059    -0.07020
C3091       C  0.68784763  0.56010686  0.01642181     0.13850
C3092       C  0.68613377  0.57880150  0.01462918    -0.20500
C3093       C  0.69697875  0.58859826  0.00269494    -0.07020
C3094       C  0.71062637  0.57956004  0.99297427     0.13840
C3095       C  0.72279007  0.58945445  0.98009832    -0.23850
H3096       H  0.72218304  0.55360875  0.98666781     0.15130
H3097       H  0.67602667  0.58583512  0.02245134     0.15160
C3098       C  0.67625399  0.55049920  0.03003418    -0.23800
H3099       H  0.73188235  0.58008458  0.97282381     0.05370
H3100       H  0.73134912  0.59914135  0.98758751     0.08600
H3101       H  0.71463939  0.59677359  0.96993253     0.08590
H3102       H  0.68497596  0.54289176  0.03948846     0.08580
H3103       H  0.66676540  0.54120095  0.02320431     0.08580
H3104       H  0.66808269  0.56007485  0.03809717     0.05350
C3105       C  0.58466973  0.70575054  0.99951135    -0.20450
C3106       C  0.59149042  0.68967311  0.00685773    -0.07020
C3107       C  0.57956802  0.67769165  0.01566736     0.13850
C3108       C  0.56111730  0.68135148  0.01555884    -0.20500
C3109       C  0.55406258  0.69679484  0.00719274    -0.07020
C3110       C  0.56610403  0.70954651  0.99965626     0.13840
C3111       C  0.55957529  0.72687951  0.99137793    -0.23850
H3112       H  0.59388210  0.71519080  0.99323289     0.15130
H3113       H  0.55204951  0.67189815  0.02202861     0.15160
C3114       C  0.58608262  0.66136003  0.02588038    -0.23800
H3115       H  0.57081964  0.73496869  0.98572091     0.05370
H3116       H  0.55282027  0.73520883  0.00178362     0.08600
H3117       H  0.55002844  0.72393418  0.98029760     0.08590
H3118       H  0.59686825  0.66531976  0.03544256     0.08580
H3119       H  0.59108914  0.65094611  0.01647586     0.08580
H3120       H  0.57511607  0.65501867  0.03383596     0.05350
C3121       C  0.91560594  0.81234692  0.99822802    -0.20450
C3122       C  0.90479840  0.79772957  0.00349539    -0.07020
C3123       C  0.91339731  0.78157058  0.00904313     0.13850
C3124       C  0.93235934  0.78077563  0.00936852    -0.20500
C3125       C  0.94304282  0.79578898  0.00485164    -0.07020
C3126       C  0.93434204  0.81193152  0.99939239     0.13840
C3127       C  0.94434632  0.82911867  0.99491503    -0.23850
H3128       H  0.90934639  0.82457704  0.99337731     0.15130
H3129       H  0.93888227  0.76841266  0.01357783     0.15160
C3130       C  0.90298621  0.76523402  0.01508120    -0.23800
H3131       H  0.93521772  0.84001776  0.99029133     0.05370
H3132       H  0.95413051  0.82670820  0.98397642     0.08600
H3133       H  0.95136789  0.83424671  0.00708152     0.08590
H3134       H  0.89578512  0.75925853  0.00344849     0.08580
H3135       H  0.89339134  0.76897257  0.02590061     0.08580
H3136       H  0.91196861  0.75459695  0.02053380     0.05350
C3137       C  0.81301866  0.93351018  0.01459931    -0.20450
C3138       C  0.79750091  0.94022552  0.00620211    -0.07020
C3139       C  0.78459831  0.92789832  0.99949523     0.13850
C3140       C  0.78822290  0.90926860  0.00035424    -0.20500
C3141       C  0.80427992  0.90267485  0.00792271    -0.07020
C3142       C  0.81652700  0.91504856  0.01574777     0.13840
C3143       C  0.83303015  0.90919988  0.02602945    -0.23850
H3144       H  0.82264915  0.94285827  0.02036680     0.15130
H3145       H  0.77861791  0.89981615  0.99473008     0.15160
C3146       C  0.76730512  0.93418493  0.99103371    -0.23800
H3147       H  0.83878472  0.92044623  0.03407632     0.05370
H3148       H  0.84370935  0.90485934  0.01660563     0.08600
H3149       H  0.82959649  0.89820840  0.03558589     0.08590
H3150       H  0.77026281  0.94317227  0.97944586     0.08580
H3151       H  0.75913306  0.94154430  0.00114992     0.08580
H3152       H  0.75909617  0.92270347  0.98602859     0.05350
C3153       C  0.76349212  0.74444787  0.01666447    -0.20450
C3154       C  0.75977755  0.76017005  0.00685556    -0.07020
C3155       C  0.74306426  0.76186398  0.99792191     0.13850
C3156       C  0.73056808  0.74771906  0.99903102    -0.20500
C3157       C  0.73436605  0.73190191  0.00868155    -0.07020
C3158       C  0.75100116  0.73032161  0.01780445     0.13840
C3159       C  0.75550609  0.71422138  0.02936060    -0.23850
H3160       H  0.77626111  0.74326758  0.02360720     0.15130
H3161       H  0.71783415  0.74888104  0.99202499     0.15160
C3162       C  0.73854522  0.77807956  0.98654527    -0.23800
H3163       H  0.76819452  0.71629686  0.03698457     0.05370
H3164       H  0.75744158  0.70210393  0.02087963     0.08600
H3165       H  0.74460445  0.71180580  0.03928593     0.08590
H3166       H  0.74922099  0.78033019  0.97633732     0.08580
H3167       H  0.73712596  0.79019273  0.99514688     0.08580
H3168       H  0.72560974  0.77628072  0.97927773     0.05350
C3169       C  0.68784659  0.50749009  0.92017809    -0.20450
C3170       C  0.69929286  0.49617065  0.91041847    -0.07020
C3171       C  0.71309718  0.48674356  0.91947846     0.13850
C3172       C  0.71429944  0.48797452  0.93835341    -0.20500
C3173       C  0.70197910  0.49834013  0.94824175    -0.07020
C3174       C  0.68907864  0.50885905  0.93893074     0.13840
C3175       C  0.67666099  0.52174991  0.94854313    -0.23850
H3176       H  0.67757556  0.51502972  0.91306826     0.15130
H3177       H  0.72433382  0.48013714  0.94546965     0.15160
C3178       C  0.72589952  0.47464711  0.90946441    -0.23800
H3179       H  0.66882487  0.53008533  0.93890871     0.05370
H3180       H  0.68462334  0.53105148  0.95715720     0.08600
H3181       H  0.66682146  0.51424218  0.95690198     0.08590
H3182       H  0.73404736  0.48273259  0.89989371     0.08580
H3183       H  0.71825864  0.46420119  0.90195097     0.08580
H3184       H  0.73531958  0.46769189  0.91875973     0.05350
C3185       C  0.58462295  0.50003505  0.82457566    -0.20450
C3186       C  0.59423349  0.49225783  0.81034100    -0.07020
C3187       C  0.58475436  0.48654772  0.79478402     0.13850
C3188       C  0.56592256  0.48841904  0.79420392    -0.20500
C3189       C  0.55624873  0.49546943  0.80886575    -0.07020
C3190       C  0.56589447  0.50144885  0.82428181     0.13840
C3191       C  0.55685544  0.50926993  0.84071985    -0.23850
H3192       H  0.59184179  0.50478941  0.83633558     0.15130
H3193       H  0.55865703  0.48377781  0.78242080     0.15160
C3194       C  0.59409472  0.47774469  0.77908838    -0.23800
H3195       H  0.56672058  0.51428908  0.85078442     0.05370
H3196       H  0.54864351  0.49879571  0.84754129     0.08600
H3197       H  0.54831728  0.52080765  0.83679166     0.08590
H3198       H  0.60232458  0.46621224  0.78384648     0.08580
H3199       H  0.60268335  0.48771450  0.77203983     0.08580
H3200       H  0.58433873  0.47250399  0.76903015     0.05350
C3201       C  0.81181832  0.48251810  0.58783963    -0.20450
C3202       C  0.80082832  0.49375690  0.59822603    -0.07020
C3203       C  0.78702398  0.50374523  0.58971226     0.13850
C3204       C  0.78538504  0.50305225  0.57083002    -0.20500
C3205       C  0.79726332  0.49273269  0.56037994    -0.07020
C3206       C  0.81019897  0.48177332  0.56908887     0.13840
C3207       C  0.82227440  0.46906217  0.55881882    -0.23850
H3208       H  0.82207225  0.47452498  0.59445500     0.15130
H3209       H  0.77533641  0.51124515  0.56414349     0.15160
C3210       C  0.77466363  0.51587462  0.60023643    -0.23800
H3211       H  0.83022988  0.46035406  0.56801408     0.05370
H3212       H  0.83201385  0.47673717  0.55048846     0.08600
H3213       H  0.81403820  0.46011583  0.55009151     0.08590
H3214       H  0.78265052  0.52575556  0.60813699     0.08580
H3215       H  0.76618396  0.50771210  0.60943242     0.08580
H3216       H  0.76548486  0.52352606  0.59124915     0.05350
C3217       C  0.93302263  0.48788616  0.71638939    -0.20450
C3218       C  0.94401131  0.49930026  0.70609872    -0.07020
C3219       C  0.93606096  0.51160539  0.69391245     0.13850
C3220       C  0.91738416  0.51149477  0.69164072    -0.20500
C3221       C  0.90641001  0.49956408  0.70131877    -0.07020
C3222       C  0.91426773  0.48777024  0.71408850     0.13840
C3223       C  0.90318858  0.47436383  0.72457846    -0.23850
H3224       H  0.93920708  0.47852904  0.72574216     0.15130
H3225       H  0.91128255  0.52069613  0.68208204     0.15160
C3226       C  0.94711302  0.52515636  0.68351159    -0.23800
H3227       H  0.91175344  0.46532802  0.73286227     0.05370
H3228       H  0.89526885  0.46582127  0.71518940     0.08600
H3229       H  0.89402061  0.48151346  0.73390610     0.08590
H3230       H  0.95599402  0.51819382  0.67375231     0.08580
H3231       H  0.95537468  0.53329807  0.69297026     0.08580
H3232       H  0.93850216  0.53457147  0.67571400     0.05350
C3233       C  0.74902846  0.50667006  0.73809878    -0.20450
C3234       C  0.76459627  0.49672204  0.74186768    -0.07020
C3235       C  0.76605892  0.48742728  0.75843300     0.13850
C3236       C  0.75187479  0.48842235  0.77078858    -0.20500
C3237       C  0.73628018  0.49835914  0.76701974    -0.07020
C3238       C  0.73485944  0.50770378  0.75046664     0.13840
C3239       C  0.71890852  0.51937164  0.74592870    -0.23850
H3240       H  0.74802329  0.51384494  0.72541042     0.15130
H3241       H  0.75288777  0.48119724  0.78344760     0.15160
C3242       C  0.78208049  0.47585155  0.76296718    -0.23800
H3243       H  0.72110750  0.52713465  0.73331588     0.05370
H3244       H  0.71646232  0.52919440  0.75693619     0.08600
H3245       H  0.70681647  0.51091847  0.74376924     0.08590
H3246       H  0.79418275  0.48436095  0.76485470     0.08580
H3247       H  0.78443578  0.46589497  0.75206002     0.08580
H3248       H  0.78003188  0.46825710  0.77570753     0.05350
C3249       C  0.71372143  0.93051800  0.51096285    -0.20450
C3250       C  0.69925186  0.94102035  0.50476898    -0.07020
C3251       C  0.68372430  0.93216752  0.49794249     0.13850
C3252       C  0.68276470  0.91334391  0.49847520    -0.20500
C3253       C  0.69680059  0.90290278  0.50543527    -0.07020
C3254       C  0.71270763  0.91154954  0.51137835     0.13840
C3255       C  0.72831333  0.90102473  0.51886867    -0.23850
H3256       H  0.72570791  0.93718503  0.51594900     0.15130
H3257       H  0.67076832  0.90666388  0.49352387     0.15160
C3258       C  0.66807693  0.94221252  0.48974008    -0.23800
H3259       H  0.73907956  0.91005466  0.52401631     0.05370
H3260       H  0.73432375  0.89254683  0.50815899     0.08600
H3261       H  0.72372580  0.89237886  0.53018410     0.08590
H3262       H  0.67292384  0.95123328  0.47881980     0.08580
H3263       H  0.66098662  0.95014662  0.50022083     0.08580
H3264       H  0.65800069  0.93290655  0.48374869     0.05350
C3265       C  0.58559607  0.78603281  0.51313134    -0.20450
C3266       C  0.59295626  0.80170784  0.50542116    -0.07020
C3267       C  0.58157308  0.81356815  0.49581354     0.13850
C3268       C  0.56307604  0.81009135  0.49525908    -0.20500
C3269       C  0.55548798  0.79500140  0.50382990    -0.07020
C3270       C  0.56698824  0.78250326  0.51247610     0.13840
C3271       C  0.55978085  0.76581845  0.52154497    -0.23850
H3272       H  0.59440934  0.77673972  0.52012297     0.15130
H3273       H  0.55438387  0.81942470  0.48816294     0.15160
C3274       C  0.58874099  0.82958311  0.48550993    -0.23800
H3275       H  0.57063709  0.75791939  0.52810944     0.05370
H3276       H  0.55323285  0.75696373  0.51141960     0.08600
H3277       H  0.54989056  0.76961026  0.53206939     0.08590
H3278       H  0.59972283  0.82525145  0.47636648     0.08580
H3279       H  0.59371149  0.84006263  0.49489073     0.08580
H3280       H  0.57815648  0.83597484  0.47711143     0.05350
C3281       C  0.81592772  0.57994376  0.51488275    -0.20450
C3282       C  0.80252108  0.59027250  0.50661221    -0.07020
C3283       C  0.78705584  0.58155424  0.49968886     0.13850
C3284       C  0.78586799  0.56262313  0.50053507    -0.20500
C3285       C  0.79975338  0.55219565  0.50805358    -0.07020
C3286       C  0.81478613  0.56112309  0.51580809     0.13840
C3287       C  0.82969602  0.55114049  0.52533460    -0.23850
H3288       H  0.82758021  0.58669670  0.52051376     0.15130
H3289       H  0.77427900  0.55590433  0.49474019     0.15160
C3290       C  0.77219367  0.59193461  0.49062449    -0.23800
H3291       H  0.83933649  0.56050839  0.53191942     0.05370
H3292       H  0.83750679  0.54298909  0.51556351     0.08600
H3293       H  0.82396895  0.54232031  0.53598633     0.08590
H3294       H  0.77776146  0.60021304  0.47947505     0.08580
H3295       H  0.76538048  0.60075869  0.50053723     0.08580
H3296       H  0.76181832  0.58281508  0.48486479     0.05350
C3297       C  0.91625199  0.67796880  0.50932856    -0.20450
C3298       C  0.90571843  0.69282989  0.50431184    -0.07020
C3299       C  0.91450872  0.70936611  0.50034294     0.13850
C3300       C  0.93343719  0.71026671  0.50099268    -0.20500
C3301       C  0.94395709  0.69515658  0.50543521    -0.07020
C3302       C  0.93505765  0.67875866  0.50983816     0.13840
C3303       C  0.94498157  0.66184724  0.51525877    -0.23850
H3304       H  0.90970044  0.66541139  0.51287633     0.15130
H3305       H  0.94007475  0.72286684  0.49771231     0.15160
C3306       C  0.90433219  0.72603636  0.49489934    -0.23800
H3307       H  0.93567291  0.65076366  0.51909027     0.05370
H3308       H  0.95368581  0.66463273  0.52708991     0.08600
H3309       H  0.95315050  0.65682270  0.50379925     0.08590
H3310       H  0.89671590  0.73132553  0.50658150     0.08580
H3311       H  0.89512610  0.72295755  0.48353713     0.08580
H3312       H  0.91351595  0.73699061  0.49044511     0.05350
C3313       C  0.76347655  0.74856132  0.51570092    -0.20450
C3314       C  0.76158691  0.73251184  0.50590163    -0.07020
C3315       C  0.74675989  0.73040791  0.49411116     0.13850
C3316       C  0.73416472  0.74437995  0.49263441    -0.20500
C3317       C  0.73608849  0.76043749  0.50240643    -0.07020
C3318       C  0.75088638  0.76252639  0.51422147     0.13840
C3319       C  0.75318272  0.77899441  0.52591358    -0.23850
H3320       H  0.77483108  0.75010064  0.52473432     0.15130
H3321       H  0.72278694  0.74284877  0.48362589     0.15160
C3322       C  0.74442534  0.71392819  0.48244715    -0.23800
H3323       H  0.76449312  0.77741627  0.53555726     0.05370
H3324       H  0.74076845  0.78137543  0.53385800     0.08600
H3325       H  0.75625262  0.79094469  0.51750656     0.08590
H3326       H  0.74128780  0.70201041  0.49087450     0.08580
H3327       H  0.75683911  0.71148623  0.47452224     0.08580
H3328       H  0.73313318  0.71553008  0.47278477     0.05350
C3329       C  0.51212379  0.70262789  0.92089834    -0.20450
C3330       C  0.49783374  0.69346024  0.91258874    -0.07020
C3331       C  0.48304674  0.68768194  0.92309442     0.13850
C3332       C  0.48349314  0.69010149  0.94181757    -0.20500
C3333       C  0.49816113  0.69844136  0.95022686    -0.07020
C3334       C  0.51249225  0.70512741  0.93967528     0.13840
C3335       C  0.52855139  0.71399931  0.94828814    -0.23850
H3336       H  0.52336930  0.70715186  0.91276620     0.15130
H3337       H  0.47240997  0.68527942  0.95000430     0.15160
C3338       C  0.46657481  0.67936822  0.91462428    -0.23800
H3339       H  0.53875140  0.71805263  0.93813028     0.05370
H3340       H  0.53497600  0.70445490  0.95784482     0.08600
H3341       H  0.52426502  0.72628175  0.95565632     0.08590
H3342       H  0.46991871  0.66624285  0.90836501     0.08580
H3343       H  0.46108178  0.68861472  0.90422398     0.08580
H3344       H  0.45584805  0.67686488  0.92473315     0.05350
C3345       C  0.51218349  0.57985562  0.81869964    -0.20450
C3346       C  0.49847044  0.58918679  0.80973222    -0.07020
C3347       C  0.48631392  0.57954150  0.79867264     0.13850
C3348       C  0.48784794  0.56066401  0.79741810    -0.20500
C3349       C  0.50106115  0.55130565  0.80714708    -0.07020
C3350       C  0.51367573  0.56108459  0.81750459     0.13840
C3351       C  0.52895670  0.55184630  0.82705539    -0.23850
H3352       H  0.52165866  0.58731732  0.82693935     0.15130
H3353       H  0.47824567  0.55310455  0.78942085     0.15160
C3354       C  0.47116531  0.58890008  0.78900996    -0.23800
H3355       H  0.53814206  0.56165840  0.83364527     0.05370
H3356       H  0.53691957  0.54397293  0.81715469     0.08600
H3357       H  0.52366576  0.54277566  0.83768988     0.08590
H3358       H  0.47665017  0.59845064  0.77891072     0.08580
H3359       H  0.46273286  0.59634113  0.79885016     0.08580
H3360       H  0.46239227  0.57916594  0.78177217     0.05350
C3361       C  0.51662016  0.80320100  0.58818350    -0.20450
C3362       C  0.50172528  0.79745887  0.59827521    -0.07020
C3363       C  0.48707503  0.78909142  0.58939805     0.13850
C3364       C  0.48758381  0.78704030  0.57056854    -0.20500
C3365       C  0.50221094  0.79342366  0.56050863    -0.07020
C3366       C  0.51705883  0.80125404  0.56940775     0.13840
C3367       C  0.53341962  0.80745734  0.55911715    -0.23850
H3368       H  0.52786368  0.80951281  0.59502863     0.15130
H3369       H  0.47620182  0.78114756  0.56357824     0.15160
C3370       C  0.47046339  0.78331904  0.59948924    -0.23800
H3371       H  0.54404592  0.81268749  0.56825170     0.05370
H3372       H  0.52974950  0.81842446  0.54964649     0.08600
H3373       H  0.53912157  0.79598731  0.55140289     0.08590
H3374       H  0.46476343  0.79498374  0.60691528     0.08580
H3375       H  0.47381043  0.77239572  0.60910543     0.08580
H3376       H  0.45992394  0.77809134  0.59024980     0.05350
C3377       C  0.50738407  0.90994634  0.71458037    -0.20450
C3378       C  0.49837258  0.90256320  0.69966798    -0.07020
C3379       C  0.48775774  0.91395593  0.68867917     0.13850
C3380       C  0.48749423  0.93252280  0.69213866    -0.20500
C3381       C  0.49723110  0.94008232  0.70646158    -0.07020
C3382       C  0.50696598  0.92857798  0.71814257     0.13840
C3383       C  0.51753597  0.93584688  0.73387660    -0.23850
H3384       H  0.51523329  0.90114649  0.72318282     0.15130
H3385       H  0.47965806  0.94127523  0.68347251     0.15160
C3386       C  0.47608329  0.90671126  0.67370617    -0.23800
H3387       H  0.52491750  0.92500264  0.74106547     0.05370
H3388       H  0.50830134  0.94226480  0.74370313     0.08600
H3389       H  0.52753321  0.94589644  0.72908267     0.08590
H3390       H  0.46741645  0.89566525  0.67888819     0.08580
H3391       H  0.48444525  0.90174485  0.66243328     0.08580
H3392       H  0.46713811  0.91729633  0.66809154     0.05350
C3393       C  0.51321389  0.75858555  0.75313512    -0.20450
C3394       C  0.49809525  0.75910152  0.74186023    -0.07020
C3395       C  0.48420810  0.74629558  0.74419644     0.13850
C3396       C  0.48586496  0.73316591  0.75771509    -0.20500
C3397       C  0.50095842  0.73266887  0.76903792    -0.07020
C3398       C  0.51490632  0.74541394  0.76661889     0.13840
C3399       C  0.53189955  0.74472759  0.77765834    -0.23850
H3400       H  0.52387897  0.76837252  0.75116586     0.15130
H3401       H  0.47519208  0.72338270  0.75965606     0.15160
C3402       C  0.46734743  0.74684049  0.73294837    -0.23800
H3403       H  0.54181174  0.75501412  0.77318347     0.05370
H3404       H  0.53823704  0.73124623  0.77629270     0.08600
H3405       H  0.52886303  0.74736892  0.79202771     0.08590
H3406       H  0.47062419  0.74435093  0.71859750     0.08580
H3407       H  0.46083451  0.76023620  0.73430982     0.08580
H3408       H  0.45750783  0.73640126  0.73722620     0.05350
loop_ 
_geom_bond_atom_site_label_1 
_geom_bond_atom_site_label_2 
_geom_bond_distance 
_geom_bond_site_symmetry_2 
_ccdc_geom_bond_type 
N1            N2   1.321       .  A
N1            C5   1.347       .  A
N1           Cu9   2.074       .  S
N2            C3   1.343       .  A
N2           Cu8   2.068       .  S
C3            C4   1.382       .  A
C3            H6   1.082       .  S
C4            C5   1.386       .  A
C4         C3362   1.479       .  S
C5            H7   1.081       .  S
Cu8          N11   2.067       .  S
Cu9          N19   2.075       .  S
Cu10         N12   2.077       .  S
Cu10         N18   2.078       .  S
N11          N12   1.321       .  A
N11          C15   1.342       .  A
N12          C13   1.347       .  A
C13          C14   1.386       .  A
C13          H16   1.082       .  S
C14          C15   1.383       .  A
C14        C3378   1.482       .  S
C15          H17   1.080       .  S
N18          N19   1.324       .  A
N18          C22   1.345       .  A
N19          C20   1.344       .  A
C20          C21   1.382       .  A
C20          H23   1.082       .  S
C21          C22   1.382       .  A
C21        C3394   1.476       .  S
C22          H24   1.082       .  S
N25          N26   1.321       .  A
N25          C29   1.348       .  A
N25         Cu33   2.076       .  S
N26          C27   1.341       .  A
N26         Cu32   2.064       .  S
C27          C28   1.382       .  A
C27          H30   1.082       .  S
C28          C29   1.386       .  A
C28        C3346   1.479       .  S
C29          H31   1.081       .  S
Cu32         N35   2.064       .  S
Cu33         N43   2.077       .  S
Cu34         N36   2.077       .  S
Cu34         N42   2.078       .  S
N35          N36   1.321       .  A
N35          C39   1.341       .  A
N36          C37   1.348       .  A
C37          C38   1.385       .  A
C37          H40   1.082       .  S
C38          C39   1.381       .  A
C38        C3330   1.477       .  S
C39          H41   1.082       .  S
N42          N43   1.324       .  A
N42          C46   1.345       .  A
N43          C44   1.345       .  A
C44          C45   1.382       .  A
C44          H47   1.082       .  S
C45          C46   1.383       .  A
C45        C3397   1.477       .  S
C46          H48   1.082       .  S
N49          N50   1.320       .  A
N49          C53   1.347       .  A
N49         Cu57   2.075       .  S
N50          C51   1.341       .  A
N50         Cu56   2.076       .  S
C51          C52   1.390       .  A
C51          H54   1.082       .  S
C52          C53   1.391       .  A
C52        C3298   1.496       .  S
C53          H55   1.079       .  S
Cu56         N59   2.076       .  S
Cu57         N67   2.075       .  S
Cu58         N60   2.063       .  S
Cu58         N66   2.063       .  S
N59          N60   1.321       .  A
N59          C63   1.342       .  A
N60          C61   1.346       .  A
C61          C62   1.385       .  A
C61          H64   1.081       .  S
C62          C63   1.386       .  A
C62        C3282   1.482       .  S
C63          H65   1.082       .  S
N66          N67   1.322       .  A
N66          C70   1.342       .  A
N67          C68   1.344       .  A
C68          C69   1.384       .  A
C68          H71   1.082       .  S
C69          C70   1.382       .  A
C69        C3314   1.478       .  S
C70          H72   1.080       .  S
N73          N74   1.321       .  A
N73          C77   1.347       .  A
N73         Cu81   2.073       .  S
N74          C75   1.343       .  A
N74         Cu80   2.073       .  S
C75          C76   1.385       .  A
C75          H78   1.081       .  S
C76          C77   1.385       .  A
C76        C3266   1.483       .  S
C77          H79   1.082       .  S
Cu80         N83   2.073       .  S
Cu81         N91   2.074       .  S
Cu82         N84   2.064       .  S
Cu82         N90   2.064       .  S
N83          N84   1.320       .  A
N83          C87   1.341       .  A
N84          C85   1.347       .  A
C85          C86   1.386       .  A
C85          H88   1.081       .  S
C86          C87   1.386       .  A
C86        C3253   1.482       .  S
C87          H89   1.082       .  S
N90          N91   1.323       .  A
N90          C94   1.342       .  A
N91          C92   1.344       .  A
C92          C93   1.384       .  A
C92          H95   1.082       .  S
C93          C94   1.382       .  A
C93        C3317   1.477       .  S
C94          H96   1.080       .  S
N97          N98   1.321       .  A
N97         C101   1.346       .  A
N97        Cu105   2.063       .  S
N98          C99   1.342       .  A
N98        Cu104   2.075       .  S
C99         C100   1.385       .  A
C99         H102   1.082       .  S
C100        C101   1.384       .  A
C100       C3202   1.479       .  S
C101        H103   1.081       .  S
Cu104       N107   2.075       .  S
Cu105       N115   2.063       .  S
Cu106       N108   2.057       .  S
Cu106       N114   2.057       .  S
N107        N108   1.321       .  A
N107        C111   1.343       .  A
N108        C109   1.344       .  A
C109        C110   1.382       .  A
C109        H112   1.081       .  S
C110        C111   1.385       .  A
C110       C3221   1.477       .  S
C111        H113   1.083       .  S
N114        N115   1.321       .  A
N114        C118   1.342       .  A
N115        C116   1.341       .  A
C116        C117   1.383       .  A
C116        H119   1.082       .  S
C117        C118   1.382       .  A
C117       C3234   1.474       .  S
C118        H120   1.080       .  S
N121        N122   1.319       .  A
N121        C125   1.346       .  A
N121       Cu129   2.061       .  S
N122        C123   1.340       .  A
N122       Cu128   2.072       .  S
C123        C124   1.388       .  A
C123        H126   1.082       .  S
C124        C125   1.387       .  A
C124       C3186   1.487       .  S
C125        H127   1.080       .  S
Cu128       N131   2.072       .  S
Cu129       N139   2.061       .  S
Cu130       N132   2.063       .  S
Cu130       N138   2.063       .  S
N131        N132   1.321       .  A
N131        C135   1.342       .  A
N132        C133   1.346       .  A
C133        C134   1.383       .  A
C133        H136   1.082       .  S
C134        C135   1.383       .  A
C134       C3170   1.475       .  S
C135        H137   1.082       .  S
N138        N139   1.322       .  A
N138        C142   1.341       .  A
N139        C140   1.342       .  A
C140        C141   1.383       .  A
C140        H143   1.080       .  S
C141        C142   1.383       .  A
C141       C3237   1.476       .  S
C142        H144   1.082       .  S
N145        N146   1.318       .  A
N145        C149   1.347       .  A
N145       Cu153   2.069       .  S
N146        C147   1.339       .  A
N146       Cu152   2.058       .  S
C147        C148   1.385       .  A
C147        H150   1.078       .  S
C148        C149   1.389       .  A
C148       C3141   1.486       .  S
C149        H151   1.082       .  S
Cu152       N155   2.059       .  S
Cu153       N163   2.072       .  S
Cu154       N156   2.076       .  S
Cu154       N162   2.079       .  S
N155        N156   1.317       .  A
N155        C159   1.336       .  A
N156        C157   1.350       .  A
C157        C158   1.395       .  A
C157        H160   1.078   1_554  S
C158        C159   1.389       .  A
C158       C3122   1.498       .  S
C159        H161   1.081       .  S
N162        N163   1.325       .  A
N162        C166   1.343       .  A
N163        C164   1.343       .  A
C164        C165   1.382       .  A
C164        H167   1.081       .  S
C165        C166   1.383       .  A
C165       C3154   1.478       .  S
C166        H168   1.083       .  S
N169        N170   1.320       .  A
N169        C173   1.346   1_556  A
N169       Cu177   2.061   1_556  S
N170        C171   1.342       .  A
N170       Cu176   2.075       .  S
C171        C172   1.386       .  A
C171        H174   1.082       .  S
C172        C173   1.384   1_556  A
C172       C3093   1.480   1_556  S
C173        H175   1.081       .  S
Cu176       N179   2.075   1_556  S
Cu177       N187   2.062       .  S
Cu178       N180   2.077       .  S
Cu178       N186   2.077       .  S
N179        N180   1.322       .  A
N179        C183   1.342       .  A
N180        C181   1.348       .  A
C181        C182   1.386       .  A
C181        H184   1.082       .  S
C182        C183   1.385       .  A
C182       C3106   1.485       .  S
C183        H185   1.080   1_554  S
N186        N187   1.322       .  A
N186        C190   1.344       .  A
N187        C188   1.342       .  A
C188        C189   1.382       .  A
C188        H191   1.081       .  S
C189        C190   1.385       .  A
C189       C3157   1.479       .  S
C190        H192   1.082       .  S
N193        N194   1.321       .  A
N193        C197   1.347       .  A
N193       Cu201   2.068       .  S
N194        C195   1.342       .  A
N194       Cu200   2.074       .  S
C195        C196   1.384       .  A
C195        H198   1.081       .  S
C196        C197   1.384       .  A
C196       C3042   1.480       .  S
C197        H199   1.082   1_565  S
Cu200       N203   2.074       .  S
Cu201       N211   2.069       .  S
Cu202       N204   2.070       .  S
Cu202       N210   2.071       .  S
N203        N204   1.321       .  A
N203        C207   1.343       .  A
N204        C205   1.347       .  A
C205        C206   1.385       .  A
C205        H208   1.082       .  S
C206        C207   1.385       .  A
C206       C3061   1.482       .  S
C207        H209   1.081       .  S
N210        N211   1.322       .  A
N210        C214   1.343       .  A
N211        C212   1.343   1_565  A
C212        C213   1.384   1_545  A
C212        H215   1.080       .  S
C213        C214   1.384       .  A
C213       C3074   1.480       .  S
C214        H216   1.083       .  S
N217        N218   1.321       .  A
N217        C221   1.346       .  A
N217       Cu225   2.068       .  S
N218        C219   1.343       .  A
N218       Cu224   2.076       .  S
C219        C220   1.387       .  A
C219        H222   1.079       .  S
C220        C221   1.385       .  A
C220       C3010   1.484       .  S
C221        H223   1.082       .  S
Cu224       N227   2.077       .  S
Cu225       N235   2.068       .  S
Cu226       N228   2.074       .  S
Cu226       N234   2.074       .  S
N227        N228   1.320       .  A
N227        C231   1.341       .  A
N228        C229   1.348       .  A
C229        C230   1.390       .  A
C229        H232   1.079       .  S
C230        C231   1.389       .  A
C230       C3026   1.493       .  S
C231        H233   1.082       .  S
N234        N235   1.322       .  A
N234        C238   1.343       .  A
N235        C236   1.343       .  A
C236        C237   1.385       .  A
C236        H239   1.080       .  S
C237        C238   1.385       .  A
C237       C3077   1.482       .  S
C238        H240   1.082       .  S
N241        N242   1.322   1_655  A
N241        C245   1.348       .  A
N241       Cu249   2.077       .  S
N242        C243   1.342       .  A
N242       Cu248   2.072       .  S
C243        C244   1.384   1_455  A
C243        H246   1.082       .  S
C244        C245   1.387       .  A
C244       C2962   1.483       .  S
C245        H247   1.081       .  S
Cu248       N251   2.072       .  S
Cu249       N259   2.077       .  S
Cu250       N252   2.075       .  S
Cu250       N258   2.076       .  S
N251        N252   1.322   1_455  A
N251        C255   1.344       .  A
N252        C253   1.347       .  A
C253        C254   1.382       .  A
C253        H256   1.082       .  S
C254        C255   1.380   1_655  A
C254       C2978   1.473       .  S
C255        H257   1.082       .  S
N258        N259   1.323       .  A
N258        C262   1.345       .  A
N259        C260   1.345       .  A
C260        C261   1.383       .  A
C260        H263   1.082       .  S
C261        C262   1.383       .  A
C261       C2994   1.477       .  S
C262        H264   1.082       .  S
N265        N266   1.323   1_655  A
N265        C269   1.348       .  A
N265       Cu273   2.078       .  S
N266        C267   1.343       .  A
N266       Cu272   2.074       .  S
C267        C268   1.381       .  A
C267        H270   1.082       .  S
C268        C269   1.383   1_455  A
C268       C2930   1.476       .  S
C269        H271   1.082       .  S
Cu272       N275   2.074       .  S
Cu273       N283   2.078       .  S
Cu274       N276   2.074       .  S
Cu274       N282   2.075       .  S
N275        N276   1.322   1_455  A
N275        C279   1.344       .  A
N276        C277   1.347       .  A
C277        C278   1.384       .  A
C277        H280   1.082       .  S
C278        C279   1.383   1_655  A
C278       C2946   1.478       .  S
C279        H281   1.082       .  S
N282        N283   1.323       .  A
N282        C286   1.345       .  A
N283        C284   1.346       .  A
C284        C285   1.383       .  A
C284        H287   1.082       .  S
C285        C286   1.383       .  A
C285       C2997   1.479       .  S
C286        H288   1.081       .  S
N289        N290   1.323       .  A
N289        C293   1.347       .  A
N289       Cu297   2.078       .  S
N290        C291   1.344       .  A
N290       Cu296   2.075       .  S
C291        C292   1.383       .  A
C291        H294   1.082       .  S
C292        C293   1.384       .  A
C292       C2898   1.479       .  S
C293        H295   1.082       .  S
Cu296       N299   2.075       .  S
Cu297       N307   2.078       .  S
Cu298       N300   2.071       .  S
Cu298       N306   2.071       .  S
N299        N300   1.322       .  A
N299        C303   1.344       .  A
N300        C301   1.346       .  A
C301        C302   1.383       .  A
C301        H304   1.082       .  S
C302        C303   1.382       .  A
C302       C2882   1.476       .  S
C303        H305   1.082       .  S
N306        N307   1.323       .  A
N306        C310   1.344       .  A
N307        C308   1.346       .  A
C308        C309   1.383       .  A
C308        H311   1.082       .  S
C309        C310   1.382       .  A
C309       C2914   1.476       .  S
C310        H312   1.082       .  S
N313        N314   1.320       .  A
N313        C317   1.348       .  A
N313       Cu321   2.077       .  S
N314        C315   1.341       .  A
N314       Cu320   2.064       .  S
C315        C316   1.383       .  A
C315        H318   1.083       .  S
C316        C317   1.388       .  A
C316       C2866   1.482       .  S
C317        H319   1.081       .  S
Cu320       N323   2.063       .  S
Cu321       N331   2.078       .  S
Cu322       N324   2.079       .  S
Cu322       N330   2.080       .  S
N323        N324   1.321       .  A
N323        C327   1.341       .  A
N324        C325   1.348       .  A
C325        C326   1.385       .  A
C325        H328   1.082       .  S
C326        C327   1.381       .  A
C326       C2850   1.477       .  S
C327        H329   1.082       .  S
N330        N331   1.324       .  A
N330        C334   1.345       .  A
N331        C332   1.345       .  A
C332        C333   1.382       .  A
C332        H335   1.082       .  S
C333        C334   1.382       .  A
C333       C2917   1.477       .  S
C334        H336   1.082       .  S
O337       Cu345   1.982       .  S
O337        C347   1.276       .  A
O338       Cu345   1.979       .  S
O338        C348   1.273       .  A
O339       Cu345   1.997       .  S
O339        C349   1.277       .  A
O340       Cu345   1.995   1_545  S
O340        C350   1.275       .  A
O341       Cu346   2.020   1_545  S
O341        C350   1.278       .  A
O342       Cu346   2.018       .  S
O342        C349   1.278       .  A
O343       Cu346   2.042       .  S
O343        C348   1.282       .  A
O344       Cu346   2.042       .  S
O344        C347   1.281       .  A
Cu345      Cu346   2.369       .  S
C347       C2834   1.495       .  S
C348       C3029   1.485       .  S
C349       C3381   1.482       .  S
C350       C2885   1.470       .  S
N351        N352   1.323       .  A
N351        C355   1.348       .  A
N351       Cu359   2.080       .  S
N352        C353   1.344       .  A
N352       Cu358   2.072       .  S
C353        C354   1.380       .  A
C353        H356   1.082       .  S
C354        C355   1.383       .  A
C354       C2802   1.474       .  S
C355        H357   1.082   1_655  S
Cu358       N361   2.072       .  S
Cu359       N369   2.080       .  S
Cu360       N362   2.077       .  S
Cu360       N368   2.078       .  S
N361        N362   1.322   1_655  A
N361        C365   1.344       .  A
N362        C363   1.347       .  A
C363        C364   1.384   1_455  A
C363        H366   1.082       .  S
C364        C365   1.382       .  A
C364       C2786   1.477       .  S
C365        H367   1.082       .  S
N368        N369   1.324   1_455  A
N368        C372   1.346       .  A
N369        C370   1.346       .  A
C370        C371   1.381       .  A
C370        H373   1.082       .  S
C371        C372   1.380   1_655  A
C371       C2821   1.473       .  S
C372        H374   1.082       .  S
N375        N376   1.322   1_655  A
N375        C379   1.348   1_655  A
N375       Cu383   2.080       .  S
N376        C377   1.343       .  A
N376       Cu382   2.073   1_455  S
C377        C378   1.383       .  A
C377        H380   1.081       .  S
C378        C379   1.386       .  A
C378       C2754   1.481       .  S
C379        H381   1.082       .  S
Cu382       N385   2.073       .  S
Cu383       N393   2.080       .  S
Cu384       N386   2.077       .  S
Cu384       N392   2.078       .  S
N385        N386   1.322       .  A
N385        C389   1.344       .  A
N386        C387   1.347       .  A
C387        C388   1.382       .  A
C387        H390   1.082       .  S
C388        C389   1.381       .  A
C388       C2770   1.474       .  S
C389        H391   1.082       .  S
N392        N393   1.325       .  A
N392        C396   1.345       .  A
N393        C394   1.346       .  A
C394        C395   1.381       .  A
C394        H397   1.082       .  S
C395        C396   1.380       .  A
C395       C2818   1.472       .  S
C396        H398   1.082       .  S
N399        N400   1.320   1_565  A
N399        C403   1.346       .  A
N399       Cu407   2.067       .  S
N400        C401   1.342       .  A
N400       Cu406   2.071       .  S
C401        C402   1.385   1_545  A
C401        H404   1.081       .  S
C402        C403   1.385       .  A
C402       C2722   1.482       .  S
C403        H405   1.082       .  S
Cu406       N409   2.071   1_545  S
Cu407       N417   2.069       .  S
Cu408       N410   2.080       .  S
Cu408       N416   2.081       .  S
N409        N410   1.320       .  A
N409        C413   1.340   1_565  A
N410        C411   1.349       .  A
C411        C412   1.392       .  A
C411        H414   1.079       .  S
C412        C413   1.388   1_565  A
C412       C2706   1.495       .  S
C413        H415   1.082       .  S
N416        N417   1.323       .  A
N416        C420   1.345       .  A
N417        C418   1.343       .  A
C418        C419   1.384       .  A
C418        H421   1.079       .  S
C419        C420   1.386       .  A
C419       C2738   1.484       .  S
C420        H422   1.082       .  S
N423        N424   1.320   1_565  A
N423        C427   1.349       .  A
N423       Cu431   2.080       .  S
N424        C425   1.342       .  A
N424       Cu430   2.073       .  S
C425        C426   1.388   1_545  A
C425        H428   1.074       .  S
C426        C427   1.391       .  A
C426       C2837   1.495       .  S
C427        H429   1.081       .  S
Cu430       N433   2.074       .  S
Cu431       N441   2.081       .  S
Cu432       N434   2.070       .  S
Cu432       N440   2.071       .  S
N433        N434   1.321   1_545  A
N433        C437   1.342       .  A
N434        C435   1.347       .  A
C435        C436   1.385       .  A
C435        H438   1.082       .  S
C436        C437   1.384   1_565  A
C436       C2690   1.481       .  S
C437        H439   1.081       .  S
N440        N441   1.323       .  A
N440        C444   1.343       .  A
N441        C442   1.345       .  A
C442        C443   1.387       .  A
C442        H445   1.082       .  S
C443        C444   1.385       .  A
C443       C2741   1.485       .  S
C444        H446   1.079       .  S
O447       Cu455   1.979       .  S
O447        C457   1.275       .  A
O448       Cu455   1.983   1_455  S
O448        C458   1.273       .  A
O449       Cu455   2.000   1_545  S
O449        C459   1.276       .  A
O450       Cu455   2.003       .  S
O450        C460   1.276       .  A
O451       Cu456   2.015       .  S
O451        C460   1.277       .  A
O452       Cu456   2.019   1_545  S
O452        C459   1.278       .  A
O453       Cu456   2.037   1_455  S
O453        C458   1.282       .  A
O454       Cu456   2.037       .  S
O454        C457   1.281       .  A
Cu455      Cu456   2.371       .  S
C457       C3058   1.484       .  S
C458       C2709   1.495       .  S
C459       C2789   1.472       .  S
C460       C2981   1.470       .  S
N461        N462   1.319       .  A
N461        C465   1.350       .  A
N461       Cu469   2.086       .  S
N462        C463   1.338       .  A
N462       Cu468   2.053       .  S
C463        C464   1.382       .  A
C463        H466   1.079       .  S
C464        C465   1.391       .  A
C464       C2658   1.486       .  S
C465        H467   1.082       .  S
Cu468       N471   2.053       .  S
Cu469       N479   2.089       .  S
Cu470       N472   2.072       .  S
Cu470       N478   2.075       .  S
N471        N472   1.318       .  A
N471        C475   1.338       .  A
N472        C473   1.348       .  A
C473        C474   1.389       .  A
C473        H476   1.082       .  S
C474        C475   1.383       .  A
C474       C2642   1.483       .  S
C475        H477   1.079       .  S
N478        N479   1.325       .  A
N478        C482   1.343       .  A
N479        C480   1.345       .  A
C480        C481   1.386       .  A
C480        H483   1.082       .  S
C481        C482   1.384       .  A
C481       C2674   1.485       .  S
C482        H484   1.080       .  S
N485        N486   1.319       .  A
N485        C489   1.347       .  A
N485       Cu493   2.071       .  S
N486        C487   1.341       .  A
N486       Cu492   2.069       .  S
C487        C488   1.388       .  A
C487        H490   1.082       .  S
C488        C489   1.390       .  A
C488       C2626   1.490       .  S
C489        H491   1.079       .  S
Cu492       N495   2.069       .  S
Cu493       N503   2.072       .  S
Cu494       N496   2.077       .  S
Cu494       N502   2.078       .  S
N495        N496   1.322       .  A
N495        C499   1.342       .  A
N496        C497   1.348       .  A
C497        C498   1.386       .  A
C497        H500   1.082       .  S
C498        C499   1.382       .  A
C498       C2610   1.479       .  S
C499        H501   1.082       .  S
N502        N503   1.323       .  A
N502        C506   1.344       .  A
N503        C504   1.344       .  A
C504        C505   1.385       .  A
C504        H507   1.080       .  S
C505        C506   1.386       .  A
C505       C2677   1.484       .  S
C506        H508   1.082       .  S
O509       Cu517   1.999   1_455  S
O509        C519   1.276       .  A
O510       Cu517   2.001       .  S
O510        C520   1.276       .  A
O511       Cu517   1.984       .  S
O511        C521   1.274       .  A
O512       Cu517   1.979   1_455  S
O512        C522   1.275       .  A
O513       Cu518   2.028   1_455  S
O513        C522   1.280       .  A
O514       Cu518   2.021       .  S
O514        C521   1.279       .  A
O515       Cu518   2.021       .  S
O515        C520   1.278       .  A
O516       Cu518   2.020       .  S
O516        C519   1.278   1_655  A
Cu517      Cu518   2.375       .  S
C519       C2949   1.472       .  S
C520       C2773   1.471       .  S
C521       C3218   1.474       .  S
C522       C2645   1.480       .  S
O523       Cu531   2.035       .  S
O523        C533   1.282       .  A
O524       Cu531   2.031       .  S
O524        C534   1.281       .  A
O525       Cu531   2.018       .  S
O525        C535   1.278       .  A
O526       Cu531   2.018       .  S
O526        C536   1.278       .  A
O527       Cu532   1.998       .  S
O527        C536   1.276       .  A
O528       Cu532   2.001       .  S
O528        C535   1.277       .  A
O529       Cu532   1.982       .  S
O529        C534   1.273       .  A
O530       Cu532   1.976       .  S
O530        C533   1.272       .  A
Cu531      Cu532   2.368       .  S
C533       C3189   1.489       .  S
C534       C2629   1.487       .  S
C535       C3349   1.477       .  S
C536       C2869   1.480       .  S
N537        N538   1.321       .  A
N537        C541   1.347       .  A
N537       Cu545   2.072       .  S
N538        C539   1.342       .  A
N538       Cu544   2.068       .  S
C539        C540   1.382       .  A
C539        H542   1.082       .  S
C540        C541   1.384       .  A
C540       C2578   1.477       .  S
C541        H543   1.082       .  S
Cu544       N547   2.068       .  S
Cu545       N555   2.073       .  S
Cu546       N548   2.077       .  S
Cu546       N554   2.077       .  S
N547        N548   1.322       .  A
N547        C551   1.343       .  A
N548        C549   1.348       .  A
C549        C550   1.383       .  A
C549        H552   1.082       .  S
C550        C551   1.380       .  A
C550       C2562   1.473       .  S
C551        H553   1.082       .  S
N554        N555   1.324       .  A
N554        C558   1.345       .  A
N555        C556   1.345       .  A
C556        C557   1.379       .  A
C556        H559   1.082       .  S
C557        C558   1.380       .  A
C557       C2594   1.469       .  S
C558        H560   1.082       .  S
N561        N562   1.322       .  A
N561        C565   1.348       .  A
N561       Cu569   2.078       .  S
N562        C563   1.342       .  A
N562       Cu568   2.068       .  S
C563        C564   1.382       .  A
C563        H566   1.082       .  S
C564        C565   1.385       .  A
C564       C2530   1.479       .  S
C565        H567   1.082       .  S
Cu568       N571   2.068       .  S
Cu569       N579   2.079       .  S
Cu570       N572   2.073       .  S
Cu570       N578   2.074       .  S
N571        N572   1.321       .  A
N571        C575   1.342       .  A
N572        C573   1.347       .  A
C573        C574   1.386       .  A
C573        H576   1.081       .  S
C574        C575   1.383       .  A
C574       C2549   1.480       .  S
C575        H577   1.082       .  S
N578        N579   1.325       .  A
N578        C582   1.344       .  A
N579        C580   1.346       .  A
C580        C581   1.380       .  A
C580        H583   1.082       .  S
C581        C582   1.379       .  A
C581       C2597   1.470       .  S
C582        H584   1.082       .  S
O585       Cu593   1.987       .  S
O585        C595   1.276       .  A
O586       Cu593   1.980       .  S
O586        C596   1.273       .  A
O587       Cu593   2.002   1_556  S
O587        C597   1.277       .  A
O588       Cu593   2.001       .  S
O588        C598   1.276       .  A
O589       Cu594   2.014       .  S
O589        C598   1.277       .  A
O590       Cu594   2.016   1_556  S
O590        C597   1.277       .  A
O591       Cu594   2.044       .  S
O591        C596   1.283       .  A
O592       Cu594   2.034       .  S
O592        C595   1.280       .  A
Cu593      Cu594   2.372       .  S
C595       C3109   1.488       .  S
C596       C2514   1.488       .  S
C597       C3333   1.473       .  S
C598       C2565   1.468       .  S
N599        N600   1.320       .  A
N599        C603   1.347       .  A
N599       Cu607   2.070   1_554  S
N600        C601   1.341       .  A
N600       Cu606   2.073       .  S
C601        C602   1.388       .  A
C601        H604   1.082       .  S
C602        C603   1.389       .  A
C602       C2482   1.491       .  S
C603        H605   1.080   1_554  S
Cu606       N609   2.073       .  S
Cu607       N617   2.070   1_556  S
Cu608       N610   2.072       .  S
Cu608       N616   2.073       .  S
N609        N610   1.321       .  A
N609        C613   1.342       .  A
N610        C611   1.347       .  A
C611        C612   1.386       .  A
C611        H614   1.082       .  S
C612        C613   1.385       .  A
C612       C2466   1.483       .  S
C613        H615   1.081       .  S
N616        N617   1.322       .  A
N616        C620   1.344       .  A
N617        C618   1.343       .  A
C618        C619   1.384       .  A
C618        H621   1.079   1_554  S
C619        C620   1.384       .  A
C619       C2498   1.481       .  S
C620        H622   1.082       .  S
N623        N624   1.321       .  A
N623        C627   1.348       .  A
N623       Cu631   2.074       .  S
N624        C625   1.343       .  A
N624       Cu630   2.082       .  S
C625        C626   1.388       .  A
C625        H628   1.082   1_554  S
C626        C627   1.387       .  A
C626       C2517   1.488       .  S
C627        H629   1.081       .  S
Cu630       N633   2.082       .  S
Cu631       N641   2.075       .  S
Cu632       N634   2.067       .  S
Cu632       N640   2.067       .  S
N633        N634   1.321       .  A
N633        C637   1.343       .  A
N634        C635   1.347       .  A
C635        C636   1.387       .  A
C635        H638   1.080       .  S
C636        C637   1.388       .  A
C636       C2450   1.488       .  S
C637        H639   1.082   1_554  S
N640        N641   1.322       .  A
N640        C644   1.343       .  A
N641        C642   1.344       .  A
C642        C643   1.385       .  A
C642        H645   1.082       .  S
C643        C644   1.384       .  A
C643       C2501   1.481       .  S
C644        H646   1.079       .  S
N647        N648   1.322       .  A
N647        C651   1.348       .  A
N647       Cu655   2.077       .  S
N648        C649   1.342       .  A
N648       Cu654   2.068       .  S
C649        C650   1.381       .  A
C649        H652   1.082   1_655  S
C650        C651   1.384       .  A
C650       C2421   1.477       .  S
C651        H653   1.082       .  S
Cu654       N657   2.068       .  S
Cu655       N665   2.078       .  S
Cu656       N658   2.075       .  S
Cu656       N664   2.076   1_455  S
N657        N658   1.322   1_655  A
N657        C661   1.342       .  A
N658        C659   1.348       .  A
C659        C660   1.384   1_455  A
C659        H662   1.082       .  S
C660        C661   1.382       .  A
C660       C2402   1.476       .  S
C661        H663   1.082       .  S
N664        N665   1.325       .  A
N664        C668   1.345       .  A
N665        C666   1.345       .  A
C666        C667   1.380       .  A
C666        H669   1.082       .  S
C667        C668   1.379       .  A
C667       C2434   1.470       .  S
C668        H670   1.082   1_655  S
N671        N672   1.322       .  A
N671        C675   1.348       .  A
N671       Cu679   2.077       .  S
N672        C673   1.343       .  A
N672       Cu678   2.074       .  S
C673        C674   1.383       .  A
C673        H676   1.081       .  S
C674        C675   1.385       .  A
C674       C2386   1.480       .  S
C675        H677   1.082       .  S
Cu678       N681   2.074       .  S
Cu679       N689   2.078       .  S
Cu680       N682   2.074       .  S
Cu680       N688   2.075       .  S
N681        N682   1.322       .  A
N681        C685   1.344       .  A
N682        C683   1.347       .  A
C683        C684   1.382       .  A
C683        H686   1.082       .  S
C684        C685   1.381       .  A
C684       C2370   1.473       .  S
C685        H687   1.082       .  S
N688        N689   1.324       .  A
N688        C692   1.345       .  A
N689        C690   1.346       .  A
C690        C691   1.380       .  A
C690        H693   1.082       .  S
C691        C692   1.379       .  A
C691       C2437   1.471       .  S
C692        H694   1.082       .  S
O695       Cu703   1.977       .  S
O695        C705   1.272       .  A
O696       Cu703   1.985   1_455  S
O696        C706   1.276       .  A
O697       Cu703   2.000   1_556  S
O697        C707   1.276       .  A
O698       Cu703   1.997       .  S
O698        C708   1.276       .  A
O699       Cu704   2.023       .  S
O699        C708   1.278       .  A
O700       Cu704   2.024   1_556  S
O700        C707   1.279       .  A
O701       Cu704   2.034   1_455  S
O701        C706   1.280       .  A
O702       Cu704   2.041       .  S
O702        C705   1.282       .  A
Cu703      Cu704   2.369       .  S
C705       C3125   1.493       .  S
C706       C2469   1.487       .  S
C707       C2965   1.482       .  S
C708       C2405   1.473       .  S
N709        N710   1.322       .  A
N709        C713   1.346       .  A
N709       Cu717   2.073       .  S
N710        C711   1.345       .  A
N710       Cu716   2.075       .  S
C711        C712   1.382       .  A
C711        H714   1.082       .  S
C712        C713   1.383       .  A
C712       C2338   1.475       .  S
C713        H715   1.082       .  S
Cu716       N719   2.074       .  S
Cu717       N727   2.074       .  S
Cu718       N720   2.078       .  S
Cu718       N726   2.078       .  S
N719        N720   1.321       .  A
N719        C723   1.342       .  A
N720        C721   1.348       .  A
C721        C722   1.386       .  A
C721        H724   1.082       .  S
C722        C723   1.385       .  A
C722       C2322   1.485       .  S
C723        H725   1.080       .  S
N726        N727   1.322       .  A
N726        C730   1.344       .  A
N727        C728   1.345       .  A
C728        C729   1.387       .  A
C728        H731   1.079       .  S
C729        C730   1.387       .  A
C729       C2354   1.488       .  S
C730        H732   1.082       .  S
N733        N734   1.319       .  A
N733        C737   1.350       .  A
N733       Cu741   2.086       .  S
N734        C735   1.339       .  A
N734       Cu740   2.058       .  S
C735        C736   1.384       .  A
C735        H738   1.078       .  S
C736        C737   1.393       .  A
C736       C2290   1.491       .  S
C737        H739   1.082       .  S
Cu740       N743   2.057       .  S
Cu741       N751   2.088       .  S
Cu742       N744   2.076       .  S
Cu742       N750   2.078       .  S
N743        N744   1.318       .  A
N743        C747   1.339       .  A
N744        C745   1.349       .  A
C745        C746   1.390       .  A
C745        H748   1.082       .  S
C746        C747   1.384       .  A
C746       C2306   1.485       .  S
C747        H749   1.079       .  S
N750        N751   1.325       .  A
N750        C754   1.344       .  A
N751        C752   1.346       .  A
C752        C753   1.386       .  A
C752        H755   1.082       .  S
C753        C754   1.384       .  A
C753       C2357   1.485       .  S
C754        H756   1.080       .  S
O757       Cu765   2.001       .  S
O757        C767   1.276   1_455  A
O758       Cu765   2.001       .  S
O758        C768   1.276   1_455  A
O759       Cu765   1.985   1_655  S
O759        C769   1.274       .  A
O760       Cu765   1.980       .  S
O760        C770   1.275       .  A
O761       Cu766   2.041   1_455  S
O761        C770   1.281       .  A
O762       Cu766   2.035       .  S
O762        C769   1.282       .  A
O763       Cu766   2.017       .  S
O763        C768   1.278       .  A
O764       Cu766   2.017       .  S
O764        C767   1.277       .  A
Cu765      Cu766   2.371   1_455  S
C767       C2373   1.469       .  S
C768       C2933   1.471   1_655  S
C769       C3301   1.495       .  S
C770       C2325   1.486       .  S
O771       Cu779   2.030       .  S
O771        C781   1.280       .  A
O772       Cu779   2.036       .  S
O772        C782   1.281       .  A
O773       Cu779   2.019       .  S
O773        C783   1.278       .  A
O774       Cu779   2.021       .  S
O774        C784   1.278       .  A
O775       Cu780   1.997       .  S
O775        C784   1.276       .  A
O776       Cu780   1.996       .  S
O776        C783   1.276       .  A
O777       Cu780   1.983       .  S
O777        C782   1.275       .  A
O778       Cu780   1.992       .  S
O778        C781   1.277       .  A
Cu779      Cu780   2.372       .  S
C781       C2293   1.489       .  S
C782       C3269   1.486       .  S
C783       C3365   1.471       .  S
C784       C2533   1.476       .  S
N785        N786   1.322       .  A
N785        C789   1.347       .  A
N785       Cu793   2.075       .  S
N786        C787   1.342       .  A
N786       Cu792   2.069       .  S
C787        C788   1.382       .  A
C787        H790   1.081       .  S
C788        C789   1.385       .  A
C788       C2258   1.478       .  S
C789        H791   1.082       .  S
Cu792       N795   2.069       .  S
Cu793       N803   2.076       .  S
Cu794       N796   2.073       .  S
Cu794       N802   2.074       .  S
N795        N796   1.321       .  A
N795        C799   1.342       .  A
N796        C797   1.347       .  A
C797        C798   1.385       .  A
C797        H800   1.082       .  S
C798        C799   1.382       .  A
C798       C2242   1.477       .  S
C799        H801   1.082       .  S
N802        N803   1.324       .  A
N802        C806   1.344       .  A
N803        C804   1.345       .  A
C804        C805   1.382       .  A
C804        H807   1.082       .  S
C805        C806   1.381       .  A
C805       C2277   1.475       .  S
C806        H808   1.082       .  S
N809        N810   1.320       .  A
N809        C813   1.348       .  A
N809       Cu817   2.079       .  S
N810        C811   1.341       .  A
N810       Cu816   2.063       .  S
C811        C812   1.383       .  A
C811        H814   1.080       .  S
C812        C813   1.388       .  A
C812       C2226   1.484       .  S
C813        H815   1.082       .  S
Cu816       N819   2.063       .  S
Cu817       N827   2.080       .  S
Cu818       N820   2.076       .  S
Cu818       N826   2.077       .  S
N819        N820   1.320       .  A
N819        C823   1.341       .  A
N820        C821   1.348       .  A
C821        C822   1.386       .  A
C821        H824   1.082       .  S
C822        C823   1.382       .  A
C822       C2210   1.479       .  S
C823        H825   1.081       .  S
N826        N827   1.325       .  A
N826        C830   1.344       .  A
N827        C828   1.346       .  A
C828        C829   1.382       .  A
C828        H831   1.082       .  S
C829        C830   1.381       .  A
C829       C2274   1.475       .  S
C830        H832   1.082       .  S
O833       Cu841   2.036       .  S
O833        C843   1.281       .  A
O834       Cu841   2.033       .  S
O834        C844   1.280       .  A
O835       Cu841   2.019   1_545  S
O835        C845   1.278       .  A
O836       Cu841   2.021       .  S
O836        C846   1.279       .  A
O837       Cu842   1.993       .  S
O837        C846   1.276       .  A
O838       Cu842   1.993   1_545  S
O838        C845   1.276       .  A
O839       Cu842   1.985       .  S
O839        C844   1.276       .  A
O840       Cu842   1.977       .  S
O840        C843   1.275       .  A
Cu841      Cu842   2.371       .  S
C843       C2178   1.483       .  S
C844       C2194   1.488       .  S
C845       C2245   1.472       .  S
C846       C2546   1.476       .  S
O847       Cu855   2.042       .  S
O847        C857   1.283       .  A
O848       Cu855   2.034       .  S
O848        C858   1.281       .  A
O849       Cu855   2.017   1_556  S
O849        C859   1.278       .  A
O850       Cu855   2.018       .  S
O850        C860   1.278       .  A
O851       Cu856   1.997       .  S
O851        C860   1.276       .  A
O852       Cu856   2.000   1_556  S
O852        C859   1.277       .  A
O853       Cu856   1.984       .  S
O853        C858   1.276       .  A
O854       Cu856   1.974       .  S
O854        C857   1.272       .  A
Cu855      Cu856   2.371       .  S
C857       C2149   1.488       .  S
C858       C2165   1.487       .  S
C859       C2853   1.474       .  S
C860       C2213   1.473       .  S
N861        N862   1.320       .  A
N861        C865   1.348       .  A
N861       Cu869   2.083       .  S
N862        C863   1.341       .  A
N862       Cu868   2.069       .  S
C863        C864   1.387       .  A
C863        H866   1.082       .  S
C864        C865   1.392       .  A
C864       C2117   1.494       .  S
C865        H867   1.079       .  S
Cu868       N871   2.068       .  S
Cu869       N879   2.084       .  S
Cu870       N872   2.064       .  S
Cu870       N878   2.066       .  S
N871        N872   1.320       .  A
N871        C875   1.341       .  A
N872        C873   1.346       .  A
C873        C874   1.387       .  A
C873        H876   1.080       .  S
C874        C875   1.386       .  A
C874       C2101   1.483       .  S
C875        H877   1.082       .  S
N878        N879   1.322       .  A
N878        C882   1.342       .  A
N879        C880   1.346       .  A
C880        C881   1.387       .  A
C880        H883   1.082       .  S
C881        C882   1.383       .  A
C881       C2130   1.484       .  S
C882        H884   1.079       .  S
N885        N886   1.320       .  A
N885        C889   1.346       .  A
N885       Cu893   2.067       .  S
N886        C887   1.342       .  A
N886       Cu892   2.072       .  S
C887        C888   1.385       .  A
C887        H890   1.082       .  S
C888        C889   1.386       .  A
C888       C2085   1.482       .  S
C889        H891   1.081       .  S
Cu892       N895   2.072       .  S
Cu893       N903   2.068       .  S
Cu894       N896   2.081       .  S
Cu894       N902   2.081       .  S
N895        N896   1.321       .  A
N895        C899   1.341       .  A
N896        C897   1.349       .  A
C897        C898   1.388       .  A
C897        H900   1.082       .  S
C898        C899   1.385       .  A
C898       C2066   1.486       .  S
C899        H901   1.080       .  S
N902        N903   1.323       .  A
N902        C906   1.345       .  A
N903        C904   1.343       .  A
C904        C905   1.384       .  A
C904        H907   1.080       .  S
C905        C906   1.386       .  A
C905       C2133   1.483       .  S
C906        H908   1.082       .  S
O909       Cu917   2.023       .  S
O909        C919   1.279       .  A
O910       Cu917   2.021       .  S
O910        C920   1.278       .  A
O911       Cu917   2.023   1_455  S
O911        C921   1.280       .  A
O912       Cu917   2.026       .  S
O912        C922   1.280       .  A
O913       Cu918   1.979       .  S
O913        C922   1.274       .  A
O914       Cu918   1.983   1_455  S
O914        C921   1.274       .  A
O915       Cu918   2.001       .  S
O915        C920   1.276       .  A
O916       Cu918   1.998       .  S
O916        C919   1.277       .  A
Cu917      Cu918   2.373       .  S
C919       C2757   1.477   1_655  S
C920       C2050   1.473       .  S
C921       C2098   1.482       .  S
C922       C2034   1.471       .  S
O923       Cu931   2.033       .  S
O923        C933   1.280       .  A
O924       Cu931   2.031       .  S
O924        C934   1.280       .  A
O925       Cu931   2.035       .  S
O925        C935   1.280       .  A
O926       Cu931   2.039   1_545  S
O926        C936   1.281       .  A
O927       Cu932   1.982   1_545  S
O927        C936   1.276       .  A
O928       Cu932   1.979       .  S
O928        C935   1.275       .  A
O929       Cu932   1.984       .  S
O929        C934   1.274       .  A
O930       Cu932   1.985       .  S
O930        C933   1.276       .  A
Cu931      Cu932   2.367       .  S
C933       C2693   1.487       .  S
C934       C2018   1.483       .  S
C935       C2309   1.486       .  S
C936       C2069   1.491       .  S
N937        N938   1.321       .  A
N937        C941   1.346       .  A
N937       Cu945   2.068       .  S
N938        C939   1.343       .  A
N938       Cu944   2.074       .  S
C939        C940   1.384       .  A
C939        H942   1.081       .  S
C940        C941   1.383       .  A
C940       C1970   1.477       .  S
C941        H943   1.082       .  S
Cu944       N947   2.074       .  S
Cu945       N955   2.068       .  S
Cu946       N948   2.067       .  S
Cu946       N954   2.068       .  S
N947        N948   1.320       .  A
N947        C951   1.341       .  A
N948        C949   1.347       .  A
C949        C950   1.386       .  A
C949        H952   1.080       .  S
C950        C951   1.386       .  A
C950       C1989   1.485       .  S
C951        H953   1.082       .  S
N954        N955   1.322       .  A
N954        C958   1.343       .  A
N955        C956   1.343       .  A
C956        C957   1.384       .  A
C956        H959   1.082       .  S
C957        C958   1.384       .  A
C957       C2002   1.480       .  S
C958        H960   1.080       .  S
N961        N962   1.321       .  A
N961        C965   1.346       .  A
N961       Cu969   2.069       .  S
N962        C963   1.343       .  A
N962       Cu968   2.079   1_554  S
C963        C964   1.386       .  A
C963        H966   1.080   1_554  S
C964        C965   1.384       .  A
C964       C2162   1.483       .  S
C965        H967   1.082       .  S
Cu968       N971   2.079       .  S
Cu969       N979   2.069       .  S
Cu970       N972   2.069       .  S
Cu970       N978   2.069       .  S
N971        N972   1.320   1_556  A
N971        C975   1.342       .  A
N972        C973   1.347       .  A
C973        C974   1.388       .  A
C973        H976   1.080       .  S
C974        C975   1.388   1_554  A
C974       C1954   1.490       .  S
C975        H977   1.082       .  S
N978        N979   1.322       .  A
N978        C982   1.342       .  A
N979        C980   1.344       .  A
C980        C981   1.385       .  A
C980        H983   1.080       .  S
C981        C982   1.384       .  A
C981       C2005   1.481       .  S
C982        H984   1.082       .  S
N985        N986   1.320       .  A
N985        C989   1.347       .  A
N985       Cu993   2.070       .  S
N986        C987   1.341       .  A
N986       Cu992   2.074       .  S
C987        C988   1.389       .  A
C987        H990   1.082       .  S
C988        C989   1.389       .  A
C988       C1925   1.491       .  S
C989        H991   1.079       .  S
Cu992       N995   2.074       .  S
Cu993      N1003   2.071       .  S
Cu994       N996   2.072       .  S
Cu994      N1002   2.073       .  S
N995        N996   1.321       .  A
N995        C999   1.342       .  A
N996        C997   1.347       .  A
C997        C998   1.387       .  A
C997       H1000   1.080   1_565  S
C998        C999   1.385       .  A
C998       C1906   1.484       .  S
C999       H1001   1.082       .  S
N1002      N1003   1.322       .  A
N1002      C1006   1.343       .  A
N1003      C1004   1.343       .  A
C1004      C1005   1.385       .  A
C1004      H1007   1.080       .  S
C1005      C1006   1.385       .  A
C1005      C1938   1.483       .  S
C1006      H1008   1.082   1_565  S
N1009      N1010   1.320       .  A
N1009      C1013   1.347       .  A
N1009     Cu1017   2.076       .  S
N1010      C1011   1.341       .  A
N1010     Cu1016   2.068       .  S
C1011      C1012   1.386       .  A
C1011      H1014   1.079       .  S
C1012      C1013   1.388       .  A
C1012      C2197   1.488       .  S
C1013      H1015   1.082   1_565  S
Cu1016     N1019   2.068       .  S
Cu1017     N1027   2.077       .  S
Cu1018     N1020   2.070       .  S
Cu1018     N1026   2.072       .  S
N1019      N1020   1.319       .  A
N1019      C1023   1.340       .  A
N1020      C1021   1.348       .  A
C1021      C1022   1.389       .  A
C1021      H1024   1.080       .  S
C1022      C1023   1.386       .  A
C1022      C2021   1.487       .  S
C1023      H1025   1.082       .  S
N1026      N1027   1.323       .  A
N1026      C1030   1.342       .  A
N1027      C1028   1.345       .  A
C1028      C1029   1.385       .  A
C1028      H1031   1.080   1_565  S
C1029      C1030   1.383       .  A
C1029      C1941   1.481       .  S
C1030      H1032   1.082       .  S
N1033      N1034   1.322       .  A
N1033      C1037   1.347       .  A
N1033     Cu1041   2.073       .  S
N1034      C1035   1.344       .  A
N1034     Cu1040   2.071       .  S
C1035      C1036   1.380       .  A
C1035      H1038   1.082       .  S
C1036      C1037   1.381       .  A
C1036      C1874   1.471       .  S
C1037      H1039   1.082       .  S
Cu1040     N1043   2.071       .  S
Cu1041     N1051   2.074       .  S
Cu1042     N1044   2.077       .  S
Cu1042     N1050   2.077       .  S
N1043      N1044   1.323       .  A
N1043      C1047   1.343       .  A
N1044      C1045   1.348       .  A
C1045      C1046   1.382       .  A
C1045      H1048   1.082       .  S
C1046      C1047   1.380       .  A
C1046      C1858   1.474       .  S
C1047      H1049   1.082   1_655  S
N1050      N1051   1.323       .  A
N1050      C1054   1.345       .  A
N1051      C1052   1.344       .  A
C1052      C1053   1.382       .  A
C1052      H1055   1.081       .  S
C1053      C1054   1.383       .  A
C1053      C1890   1.477       .  S
C1054      H1056   1.082       .  S
N1057      N1058   1.322       .  A
N1057      C1061   1.347       .  A
N1057     Cu1065   2.074       .  S
N1058      C1059   1.343       .  A
N1058     Cu1064   2.072       .  S
C1059      C1060   1.382       .  A
C1059      H1062   1.082       .  S
C1060      C1061   1.383       .  A
C1060      C1842   1.477   1_655  S
C1061      H1063   1.082       .  S
Cu1064     N1067   2.072       .  S
Cu1065     N1075   2.075       .  S
Cu1066     N1068   2.079       .  S
Cu1066     N1074   2.080       .  S
N1067      N1068   1.322       .  A
N1067      C1071   1.343       .  A
N1068      C1069   1.348       .  A
C1069      C1070   1.384       .  A
C1069      H1072   1.082       .  S
C1070      C1071   1.382       .  A
C1070      C2053   1.477       .  S
C1071      H1073   1.082       .  S
N1074      N1075   1.324       .  A
N1074      C1078   1.345       .  A
N1075      C1076   1.345       .  A
C1076      C1077   1.382       .  A
C1076      H1079   1.082       .  S
C1077      C1078   1.383       .  A
C1077      C1893   1.477       .  S
C1078      H1080   1.082       .  S
O1081     Cu1089   2.038   1_455  S
O1081      C1091   1.283       .  A
O1082     Cu1089   2.035       .  S
O1082      C1092   1.281       .  A
O1083     Cu1089   2.017       .  S
O1083      C1093   1.278       .  A
O1084     Cu1089   2.016   1_545  S
O1084      C1094   1.277       .  A
O1085     Cu1090   2.002   1_545  S
O1085      C1094   1.276       .  A
O1086     Cu1090   2.003       .  S
O1086      C1093   1.277       .  A
O1087     Cu1090   1.983       .  S
O1087      C1092   1.276       .  A
O1088     Cu1090   1.980   1_455  S
O1088      C1091   1.273       .  A
Cu1089    Cu1090   2.372       .  S
C1091      C1922   1.491       .  S
C1092      C1829   1.484       .  S
C1093      C2418   1.473       .  S
C1094      C1877   1.469       .  S
O1095     Cu1103   1.985   1_545  S
O1095      C1105   1.275       .  A
O1096     Cu1103   1.981       .  S
O1096      C1106   1.273       .  A
O1097     Cu1103   1.987       .  S
O1097      C1107   1.274       .  A
O1098     Cu1103   1.992   1_556  S
O1098      C1108   1.277       .  A
O1099     Cu1104   2.027   1_556  S
O1099      C1108   1.279       .  A
O1100     Cu1104   2.030       .  S
O1100      C1107   1.281       .  A
O1101     Cu1104   2.034       .  S
O1101      C1106   1.282       .  A
O1102     Cu1104   2.033   1_545  S
O1102      C1105   1.280       .  A
Cu1103    Cu1104   2.367       .  S
C1105      C1973   1.478       .  S
C1106      C2485   1.495       .  S
C1107      C1909   1.487       .  S
C1108      C2725   1.483       .  S
O1109     Cu1117   2.032       .  S
O1109      C1119   1.281       .  A
O1110     Cu1117   2.035   1_455  S
O1110      C1120   1.281       .  A
O1111     Cu1117   2.014   1_556  S
O1111      C1121   1.277       .  A
O1112     Cu1117   2.015       .  S
O1112      C1122   1.277       .  A
O1113     Cu1118   2.006       .  S
O1113      C1122   1.277       .  A
O1114     Cu1118   2.006   1_556  S
O1114      C1121   1.277       .  A
O1115     Cu1118   1.980   1_455  S
O1115      C1120   1.273       .  A
O1116     Cu1118   1.983       .  S
O1116      C1119   1.273       .  A
Cu1117    Cu1118   2.373       .  S
C1119      C1813   1.487       .  S
C1120      C1986   1.481       .  S
C1121      C2805   1.470       .  S
C1122      C1861   1.471       .  S
N1123      N1124   1.320       .  A
N1123      C1127   1.346       .  A
N1123     Cu1131   2.073       .  S
N1124      C1125   1.343       .  A
N1124     Cu1130   2.067       .  S
C1125      C1126   1.385       .  A
C1125      H1128   1.080       .  S
C1126      C1127   1.387       .  A
C1126      C1778   1.485       .  S
C1127      H1129   1.082       .  S
Cu1130     N1133   2.067       .  S
Cu1131     N1141   2.074       .  S
Cu1132     N1134   2.084       .  S
Cu1132     N1140   2.085       .  S
N1133      N1134   1.322       .  A
N1133      C1137   1.341       .  A
N1134      C1135   1.350       .  A
C1135      C1136   1.388       .  A
C1135      H1138   1.082       .  S
C1136      C1137   1.382       .  A
C1136      C1765   1.483       .  S
C1137      H1139   1.081       .  S
N1140      N1141   1.323       .  A
N1140      C1144   1.345       .  A
N1141      C1142   1.345       .  A
C1142      C1143   1.386       .  A
C1142      H1145   1.079       .  S
C1143      C1144   1.388       .  A
C1143      C1794   1.488       .  S
C1144      H1146   1.082       .  S
N1147      N1148   1.319       .  A
N1147      C1151   1.350       .  A
N1147     Cu1155   2.089       .  S
N1148      C1149   1.340       .  A
N1148     Cu1154   2.062       .  S
C1149      C1150   1.386       .  A
C1149      H1152   1.073       .  S
C1150      C1151   1.393       .  A
C1150      C1749   1.495       .  S
C1151      H1153   1.080       .  S
Cu1154     N1157   2.062       .  S
Cu1155     N1165   2.090       .  S
Cu1156     N1158   2.071       .  S
Cu1156     N1164   2.072       .  S
N1157      N1158   1.320       .  A
N1157      C1161   1.342       .  A
N1158      C1159   1.348       .  A
C1159      C1160   1.383       .  A
C1159      H1162   1.082       .  S
C1160      C1161   1.380       .  A
C1160      C1733   1.471       .  S
C1161      H1163   1.082       .  S
N1164      N1165   1.324       .  A
N1164      C1168   1.343       .  A
N1165      C1166   1.347       .  A
C1166      C1167   1.387       .  A
C1166      H1169   1.082       .  S
C1167      C1168   1.383       .  A
C1167      C1797   1.484       .  S
C1168      H1170   1.080       .  S
O1171     Cu1179   2.024       .  S
O1171      C1181   1.279       .  A
O1172     Cu1179   2.022       .  S
O1172      C1182   1.279   1_655  A
O1173     Cu1179   2.032       .  S
O1173      C1183   1.281       .  A
O1174     Cu1179   2.034   1_455  S
O1174      C1184   1.280       .  A
O1175     Cu1180   1.987       .  S
O1175      C1184   1.277       .  A
O1176     Cu1180   1.987   1_655  S
O1176      C1183   1.274       .  A
O1177     Cu1180   1.994       .  S
O1177      C1182   1.276       .  A
O1178     Cu1180   1.996   1_655  S
O1178      C1181   1.276       .  A
Cu1179    Cu1180   2.370   1_655  S
C1181      C2389   1.476       .  S
C1182      C1845   1.474       .  S
C1183      C1717   1.488       .  S
C1184      C1762   1.489       .  S
O1185     Cu1193   1.970       .  S
O1185      C1195   1.271       .  A
O1186     Cu1193   1.978       .  S
O1186      C1196   1.272       .  A
O1187     Cu1193   1.999   1_556  S
O1187      C1197   1.277       .  A
O1188     Cu1193   2.003       .  S
O1188      C1198   1.277       .  A
O1189     Cu1194   2.009       .  S
O1189      C1198   1.276       .  A
O1190     Cu1194   2.016   1_556  S
O1190      C1197   1.278       .  A
O1191     Cu1194   2.042       .  S
O1191      C1196   1.283       .  A
O1192     Cu1194   2.049       .  S
O1192      C1195   1.284       .  A
Cu1193    Cu1194   2.369       .  S
C1195      C2453   1.491       .  S
C1196      C1957   1.491       .  S
C1197      C2613   1.476       .  S
C1198      C1730   1.468       .  S
O1199     Cu1207   1.997       .  S
O1199      C1209   1.278       .  A
O1200     Cu1207   1.998       .  S
O1200      C1210   1.278       .  A
O1201     Cu1207   1.997       .  S
O1201      C1211   1.275       .  A
O1202     Cu1207   1.997       .  S
O1202      C1212   1.275       .  A
O1203     Cu1208   2.025       .  S
O1203      C1212   1.279       .  A
O1204     Cu1208   2.025       .  S
O1204      C1211   1.281       .  A
O1205     Cu1208   2.022       .  S
O1205      C1210   1.279       .  A
O1206     Cu1208   2.021       .  S
O1206      C1209   1.278       .  A
Cu1207    Cu1208   2.368       .  S
C1209      C2661   1.485       .  S
C1210      C1781   1.489       .  S
C1211      C2114   1.496       .  S
C1212      C2341   1.471       .  S
O1213     Cu1221   1.988       .  S
O1213      C1223   1.275       .  A
O1214     Cu1221   1.978       .  S
O1214      C1224   1.273       .  A
O1215     Cu1221   1.998       .  S
O1215      C1225   1.276       .  A
O1216     Cu1221   1.997       .  S
O1216      C1226   1.276       .  A
O1217     Cu1222   2.017       .  S
O1217      C1226   1.278       .  A
O1218     Cu1222   2.020       .  S
O1218      C1225   1.278       .  A
O1219     Cu1222   2.033       .  S
O1219      C1224   1.282       .  A
O1220     Cu1222   2.025       .  S
O1220      C1223   1.280       .  A
Cu1221    Cu1222   2.371       .  S
C1223      C2082   1.482       .  S
C1224      C1698   1.490       .  S
C1225      C2901   1.473       .  S
C1226      C2261   1.472       .  S
O1227     Cu1235   1.989       .  S
O1227      C1237   1.277       .  A
O1228     Cu1235   1.983       .  S
O1228      C1238   1.276       .  A
O1229     Cu1235   1.993       .  S
O1229      C1239   1.275       .  A
O1230     Cu1235   1.990       .  S
O1230      C1240   1.276       .  A
O1231     Cu1236   2.027       .  S
O1231      C1240   1.279       .  A
O1232     Cu1236   2.024       .  S
O1232      C1239   1.279       .  A
O1233     Cu1236   2.037       .  S
O1233      C1238   1.281       .  A
O1234     Cu1236   2.031       .  S
O1234      C1237   1.280       .  A
Cu1235    Cu1236   2.370       .  S
C1237      C1682   1.483       .  S
C1238      C1746   1.495       .  S
C1239      C2581   1.472       .  S
C1240      C2229   1.483       .  S
N1241      N1242   1.320       .  A
N1241      C1245   1.348       .  A
N1241     Cu1249   2.078       .  S
N1242      C1243   1.340       .  A
N1242     Cu1248   2.063       .  S
C1243      C1244   1.384       .  A
C1243      H1246   1.079       .  S
C1244      C1245   1.389       .  A
C1244      C1685   1.485       .  S
C1245      H1247   1.082       .  S
Cu1248     N1251   2.063       .  S
Cu1249     N1259   2.080       .  S
Cu1250     N1252   2.062       .  S
Cu1250     N1258   2.064       .  S
N1251      N1252   1.316       .  A
N1251      C1255   1.337       .  A
N1252      C1253   1.346       .  A
C1253      C1254   1.393       .  A
C1253      H1256   1.077       .  S
C1254      C1255   1.392       .  A
C1254      C1650   1.498       .  S
C1255      H1257   1.081       .  S
N1258      N1259   1.323       .  A
N1258      C1262   1.341       .  A
N1259      C1260   1.344       .  A
C1260      C1261   1.386       .  A
C1260      H1263   1.082       .  S
C1261      C1262   1.383       .  A
C1261      C1666   1.483       .  S
C1262      H1264   1.079       .  S
N1265      N1266   1.322       .  A
N1265      C1269   1.347       .  A
N1265     Cu1273   2.074       .  S
N1266      C1267   1.343       .  A
N1266     Cu1272   2.078       .  S
C1267      C1268   1.386       .  A
C1267      H1270   1.082       .  S
C1268      C1269   1.387       .  A
C1268      C1714   1.486       .  S
C1269      H1271   1.081       .  S
Cu1272     N1275   2.077       .  S
Cu1273     N1283   2.075       .  S
Cu1274     N1276   2.059       .  S
Cu1274     N1282   2.059       .  S
N1275      N1276   1.319       .  A
N1275      C1279   1.342       .  A
N1276      C1277   1.345       .  A
C1277      C1278   1.386       .  A
C1277      H1280   1.079       .  S
C1278      C1279   1.389       .  A
C1278      C1634   1.487       .  S
C1279      H1281   1.082       .  S
N1282      N1283   1.322       .  A
N1282      C1286   1.342       .  A
N1283      C1284   1.344       .  A
C1284      C1285   1.386       .  A
C1284      H1287   1.083       .  S
C1285      C1286   1.382       .  A
C1285      C1669   1.479       .  S
C1286      H1288   1.080       .  S
O1289     Cu1297   1.986       .  S
O1289      C1299   1.276       .  A
O1290     Cu1297   1.988       .  S
O1290      C1300   1.275       .  A
O1291     Cu1297   1.979   1_556  S
O1291      C1301   1.273       .  A
O1292     Cu1297   1.978       .  S
O1292      C1302   1.273       .  A
O1293     Cu1298   2.028       .  S
O1293      C1302   1.281       .  A
O1294     Cu1298   2.027   1_556  S
O1294      C1301   1.280       .  A
O1295     Cu1298   2.027       .  S
O1295      C1300   1.280       .  A
O1296     Cu1298   2.029       .  S
O1296      C1299   1.280       .  A
Cu1297    Cu1298   2.367       .  S
C1299      C1621   1.490       .  S
C1300      C3090   1.479       .  S
C1301      C3173   1.478       .  S
C1302      C1653   1.489       .  S
N1303      N1304   1.321       .  A
N1303      C1307   1.346       .  A
N1303     Cu1311   2.064       .  S
N1304      C1305   1.342       .  A
N1304     Cu1310   2.075       .  S
C1305      C1306   1.385       .  A
C1305      H1308   1.082   1_554  S
C1306      C1307   1.384       .  A
C1306      C1586   1.479       .  S
C1307      H1309   1.081       .  S
Cu1310     N1313   2.075       .  S
Cu1311     N1321   2.064       .  S
Cu1312     N1314   2.069       .  S
Cu1312     N1320   2.069       .  S
N1313      N1314   1.320       .  A
N1313      C1317   1.342       .  A
N1314      C1315   1.346       .  A
C1315      C1316   1.387       .  A
C1315      H1318   1.080       .  S
C1316      C1317   1.387       .  A
C1316      C1810   1.486       .  S
C1317      H1319   1.082   1_554  S
N1320      N1321   1.322       .  A
N1320      C1324   1.343       .  A
N1321      C1322   1.342       .  A
C1322      C1323   1.383       .  A
C1322      H1325   1.080       .  S
C1323      C1324   1.383       .  A
C1323      C1605   1.478       .  S
C1324      H1326   1.082       .  S
N1327      N1328   1.321       .  A
N1327      C1331   1.346       .  A
N1327     Cu1335   2.068       .  S
N1328      C1329   1.343       .  A
N1328     Cu1334   2.076       .  S
C1329      C1330   1.386       .  A
C1329      H1332   1.080       .  S
C1330      C1331   1.385       .  A
C1330      C1618   1.483       .  S
C1331      H1333   1.082   1_554  S
Cu1334     N1337   2.076       .  S
Cu1335     N1345   2.068       .  S
Cu1336     N1338   2.067       .  S
Cu1336     N1344   2.068       .  S
N1337      N1338   1.320       .  A
N1337      C1341   1.342       .  A
N1338      C1339   1.347       .  A
C1339      C1340   1.387       .  A
C1339      H1342   1.080       .  S
C1340      C1341   1.387       .  A
C1340      C2146   1.487       .  S
C1341      H1343   1.082       .  S
N1344      N1345   1.322       .  A
N1344      C1348   1.342       .  A
N1345      C1346   1.344       .  A
C1346      C1347   1.384       .  A
C1346      H1349   1.080   1_554  S
C1347      C1348   1.383       .  A
C1347      C1602   1.479       .  S
C1348      H1350   1.082       .  S
N1351      N1352   1.319       .  A
N1351      C1355   1.346       .  A
N1351     Cu1359   2.065       .  S
N1352      C1353   1.341       .  A
N1352     Cu1358   2.069       .  S
C1353      C1354   1.388       .  A
C1353      H1356   1.082       .  S
C1354      C1355   1.390       .  A
C1354      C1554   1.491       .  S
C1355      H1357   1.079       .  S
Cu1358     N1361   2.069       .  S
Cu1359     N1369   2.066       .  S
Cu1360     N1362   2.076       .  S
Cu1360     N1368   2.077       .  S
N1361      N1362   1.321       .  A
N1361      C1365   1.341       .  A
N1362      C1363   1.348       .  A
C1363      C1364   1.387       .  A
C1363      H1366   1.082       .  S
C1364      C1365   1.385       .  A
C1364      C1826   1.485       .  S
C1365      H1367   1.080       .  S
N1368      N1369   1.322       .  A
N1368      C1372   1.344       .  A
N1369      C1370   1.342       .  A
C1370      C1371   1.384       .  A
C1370      H1373   1.079       .  S
C1371      C1372   1.386       .  A
C1371      C1570   1.483       .  S
C1372      H1374   1.082       .  S
N1375      N1376   1.321   1_565  A
N1375      C1379   1.346       .  A
N1375     Cu1383   2.068       .  S
N1376      C1377   1.342       .  A
N1376     Cu1382   2.071       .  S
C1377      C1378   1.385   1_545  A
C1377      H1380   1.081       .  S
C1378      C1379   1.384       .  A
C1378      C1538   1.481       .  S
C1379      H1381   1.082       .  S
Cu1382     N1385   2.071       .  S
Cu1383     N1393   2.068       .  S
Cu1384     N1386   2.071       .  S
Cu1384     N1392   2.072       .  S
N1385      N1386   1.321   1_545  A
N1385      C1389   1.342       .  A
N1386      C1387   1.347       .  A
C1387      C1388   1.385       .  A
C1387      H1390   1.082       .  S
C1388      C1389   1.384   1_565  A
C1388      C2181   1.481       .  S
C1389      H1391   1.081       .  S
N1392      N1393   1.322       .  A
N1392      C1396   1.343       .  A
N1393      C1394   1.344       .  A
C1394      C1395   1.384       .  A
C1394      H1397   1.079       .  S
C1395      C1396   1.384       .  A
C1395      C1573   1.481       .  S
C1396      H1398   1.082       .  S
O1399     Cu1407   2.031       .  S
O1399      C1409   1.280       .  A
O1400     Cu1407   2.032   1_545  S
O1400      C1410   1.281       .  A
O1401     Cu1407   2.029   1_556  S
O1401      C1411   1.280       .  A
O1402     Cu1407   2.024       .  S
O1402      C1412   1.280       .  A
O1403     Cu1408   1.985       .  S
O1403      C1412   1.274       .  A
O1404     Cu1408   1.985   1_556  S
O1404      C1411   1.276       .  A
O1405     Cu1408   1.977   1_545  S
O1405      C1410   1.273       .  A
O1406     Cu1408   1.977       .  S
O1406      C1409   1.275       .  A
Cu1407    Cu1408   2.368       .  S
C1409      C3138   1.485       .  S
C1410      C1589   1.482       .  S
C1411      C3045   1.486       .  S
C1412      C1557   1.480       .  S
N1413      N1414   1.320       .  A
N1413      C1417   1.347       .  A
N1413     Cu1421   2.065       .  S
N1414      C1415   1.341       .  A
N1414     Cu1420   2.071       .  S
C1415      C1416   1.386       .  A
C1415      H1418   1.082       .  S
C1416      C1417   1.387       .  A
C1416      C1701   1.483       .  S
C1417      H1419   1.080       .  S
Cu1420     N1423   2.070       .  S
Cu1421     N1431   2.065       .  S
Cu1422     N1424   2.072       .  S
Cu1422     N1430   2.073       .  S
N1423      N1424   1.320       .  A
N1423      C1427   1.341       .  A
N1424      C1425   1.347       .  A
C1425      C1426   1.388       .  A
C1425      H1428   1.082       .  S
C1426      C1427   1.386       .  A
C1426      C1509   1.487       .  S
C1427      H1429   1.078       .  S
N1430      N1431   1.323       .  A
N1430      C1434   1.343       .  A
N1431      C1432   1.343       .  A
C1432      C1433   1.383       .  A
C1432      H1435   1.080       .  S
C1433      C1434   1.385       .  A
C1433      C1522   1.479       .  S
C1434      H1436   1.082       .  S
N1437      N1438   1.322       .  A
N1437      C1441   1.347       .  A
N1437     Cu1445   2.076       .  S
N1438      C1439   1.341       .  A
N1438     Cu1444   2.071       .  S
C1439      C1440   1.383       .  A
C1439      H1442   1.080       .  S
C1440      C1441   1.385       .  A
C1440      C1490   1.481       .  S
C1441      H1443   1.082       .  S
Cu1444     N1447   2.071       .  S
Cu1445     N1455   2.076       .  S
Cu1446     N1448   2.057       .  S
Cu1446     N1454   2.057       .  S
N1447      N1448   1.320       .  A
N1447      C1451   1.343       .  A
N1448      C1449   1.344       .  A
C1449      C1450   1.382       .  A
C1449      H1452   1.081       .  S
C1450      C1451   1.384       .  A
C1450      C2037   1.475       .  S
C1451      H1453   1.082       .  S
N1454      N1455   1.322       .  A
N1454      C1458   1.341       .  A
N1455      C1456   1.344       .  A
C1456      C1457   1.386       .  A
C1456      H1459   1.082       .  S
C1457      C1458   1.382       .  A
C1457      C1525   1.479       .  S
C1458      H1460   1.080       .  S
O1461     Cu1469   2.027       .  S
O1461      C1471   1.279       .  A
O1462     Cu1469   2.032       .  S
O1462      C1472   1.280       .  A
O1463     Cu1469   2.032       .  S
O1463      C1473   1.281       .  A
O1464     Cu1469   2.036   1_545  S
O1464      C1474   1.281       .  A
O1465     Cu1470   1.979   1_545  S
O1465      C1474   1.275       .  A
O1466     Cu1470   1.979       .  S
O1466      C1473   1.273       .  A
O1467     Cu1470   1.983       .  S
O1467      C1472   1.275       .  A
O1468     Cu1470   1.984       .  S
O1468      C1471   1.276       .  A
Cu1469    Cu1470   2.366       .  S
C1471      C1541   1.487       .  S
C1472      C3013   1.480       .  S
C1473      C3250   1.487       .  S
C1474      C1506   1.491       .  S
O1475     Cu1483   1.979       .  S
O1475      C1485   1.273       .  A
O1476     Cu1483   1.977       .  S
O1476      C1486   1.273       .  A
O1477     Cu1483   1.984       .  S
O1477      C1487   1.274       .  A
O1478     Cu1483   1.984       .  S
O1478      C1488   1.276       .  A
O1479     Cu1484   2.027       .  S
O1479      C1488   1.279       .  A
O1480     Cu1484   2.030       .  S
O1480      C1487   1.281       .  A
O1481     Cu1484   2.031       .  S
O1481      C1486   1.281       .  A
O1482     Cu1484   2.028       .  S
O1482      C1485   1.280       .  A
Cu1483    Cu1484   2.368       .  S
C1485      C3205   1.478       .  S
C1486      C1637   1.485       .  S
C1487      C3285   1.487       .  S
C1488      C1493   1.479       .  S
C1489      C1490   1.406       .  A
C1489      C1494   1.408       .  A
C1489      H1496   1.084       .  S
C1490      C1491   1.415       .  A
C1491      C1492   1.398       .  A
C1491      C1498   1.509       .  S
C1492      C1493   1.402       .  A
C1492      H1497   1.084       .  S
C1493      C1494   1.414       .  A
C1494      C1495   1.506       .  S
C1495      H1499   1.111       .  S
C1495      H1500   1.110       .  S
C1495      H1501   1.110       .  S
C1498      H1502   1.110       .  S
C1498      H1503   1.106       .  S
C1498      H1504   1.111       .  S
C1505      C1506   1.406       .  A
C1505      C1510   1.398       .  A
C1505      H1512   1.084       .  S
C1506      C1507   1.417       .  A
C1507      C1508   1.410       .  A
C1507      C1514   1.506       .  S
C1508      C1509   1.407       .  A
C1508      H1513   1.084       .  S
C1509      C1510   1.416       .  A
C1510      C1511   1.509       .  S
C1511      H1515   1.111       .  S
C1511      H1516   1.110       .  S
C1511      H1517   1.107       .  S
C1514      H1518   1.111       .  S
C1514      H1519   1.110       .  S
C1514      H1520   1.111       .  S
C1521      C1522   1.402       .  A
C1521      C1526   1.401       .  A
C1521      H1528   1.084       .  S
C1522      C1523   1.416       .  A
C1523      C1524   1.402       .  A
C1523      C1530   1.508       .  S
C1524      C1525   1.403       .  A
C1524      H1529   1.084       .  S
C1525      C1526   1.416       .  A
C1526      C1527   1.508       .  S
C1527      H1531   1.111       .  S
C1527      H1532   1.107       .  S
C1527      H1533   1.110       .  S
C1530      H1534   1.110       .  S
C1530      H1535   1.107       .  S
C1530      H1536   1.111       .  S
C1537      C1538   1.405   1_545  A
C1537      C1542   1.408       .  A
C1537      H1544   1.084       .  S
C1538      C1539   1.413       .  A
C1539      C1540   1.399       .  A
C1539      C1546   1.509       .  S
C1540      C1541   1.406       .  A
C1540      H1545   1.084       .  S
C1541      C1542   1.417   1_565  A
C1542      C1543   1.506       .  S
C1543      H1547   1.111       .  S
C1543      H1548   1.110   1_545  S
C1543      H1549   1.110       .  S
C1546      H1550   1.110       .  S
C1546      H1551   1.107       .  S
C1546      H1552   1.111       .  S
C1553      C1554   1.405       .  A
C1553      C1558   1.399       .  A
C1553      H1560   1.083       .  S
C1554      C1555   1.420   1_565  A
C1555      C1556   1.408       .  A
C1555      C1562   1.506       .  S
C1556      C1557   1.403   1_545  A
C1556      H1561   1.084       .  S
C1557      C1558   1.415       .  A
C1558      C1559   1.510       .  S
C1559      H1563   1.111       .  S
C1559      H1564   1.109       .  S
C1559      H1565   1.110       .  S
C1562      H1566   1.110       .  S
C1562      H1567   1.108       .  S
C1562      H1568   1.111       .  S
C1569      C1570   1.404   1_545  A
C1569      C1574   1.403       .  A
C1569      H1576   1.084       .  S
C1570      C1571   1.417       .  A
C1571      C1572   1.402       .  A
C1571      C1578   1.508       .  S
C1572      C1573   1.402       .  A
C1572      H1577   1.084       .  S
C1573      C1574   1.416   1_565  A
C1574      C1575   1.507       .  S
C1575      H1579   1.111       .  S
C1575      H1580   1.107       .  S
C1575      H1581   1.110       .  S
C1578      H1582   1.110       .  S
C1578      H1583   1.107       .  S
C1578      H1584   1.111       .  S
C1585      C1586   1.399       .  A
C1585      C1590   1.398       .  A
C1585      H1592   1.084       .  S
C1586      C1587   1.415   1_554  A
C1587      C1588   1.408       .  A
C1587      C1594   1.506       .  S
C1588      C1589   1.405   1_556  A
C1588      H1593   1.084       .  S
C1589      C1590   1.419       .  A
C1590      C1591   1.510       .  S
C1591      H1595   1.111       .  S
C1591      H1596   1.109       .  S
C1591      H1597   1.111       .  S
C1594      H1598   1.110       .  S
C1594      H1599   1.109       .  S
C1594      H1600   1.111       .  S
C1601      C1602   1.403   1_556  A
C1601      C1606   1.401       .  A
C1601      H1608   1.084       .  S
C1602      C1603   1.416       .  A
C1603      C1604   1.402       .  A
C1603      C1610   1.507       .  S
C1604      C1605   1.403       .  A
C1604      H1609   1.084       .  S
C1605      C1606   1.415   1_554  A
C1606      C1607   1.508       .  S
C1607      H1611   1.111       .  S
C1607      H1612   1.107       .  S
C1607      H1613   1.110       .  S
C1610      H1614   1.110       .  S
C1610      H1615   1.107       .  S
C1610      H1616   1.111       .  S
C1617      C1618   1.405       .  A
C1617      C1622   1.409       .  A
C1617      H1624   1.084       .  S
C1618      C1619   1.414   1_554  A
C1619      C1620   1.400       .  A
C1619      C1626   1.509       .  S
C1620      C1621   1.406   1_556  A
C1620      H1625   1.084       .  S
C1621      C1622   1.418       .  A
C1622      C1623   1.507       .  S
C1623      H1627   1.111       .  S
C1623      H1628   1.110       .  S
C1623      H1629   1.110       .  S
C1626      H1630   1.107       .  S
C1626      H1631   1.110       .  S
C1626      H1632   1.111       .  S
C1633      C1634   1.402       .  A
C1633      C1638   1.399       .  A
C1633      H1640   1.084       .  S
C1634      C1635   1.418       .  A
C1635      C1636   1.408       .  A
C1635      C1642   1.506       .  S
C1636      C1637   1.404       .  A
C1636      H1641   1.084       .  S
C1637      C1638   1.419       .  A
C1638      C1639   1.511       .  S
C1639      H1643   1.111       .  S
C1639      H1644   1.110       .  S
C1639      H1645   1.109       .  S
C1642      H1646   1.108       .  S
C1642      H1647   1.110       .  S
C1642      H1648   1.111       .  S
C1649      C1650   1.405       .  A
C1649      C1654   1.397       .  A
C1649      H1656   1.081       .  S
C1650      C1651   1.422       .  A
C1651      C1652   1.409       .  A
C1651      C1658   1.505       .  S
C1652      C1653   1.405       .  A
C1652      H1657   1.084       .  S
C1653      C1654   1.419       .  A
C1654      C1655   1.511       .  S
C1655      H1659   1.111       .  S
C1655      H1660   1.110       .  S
C1655      H1661   1.106       .  S
C1658      H1662   1.110       .  S
C1658      H1663   1.108       .  S
C1658      H1664   1.111       .  S
C1665      C1666   1.404       .  A
C1665      C1670   1.402       .  A
C1665      H1672   1.084       .  S
C1666      C1667   1.417       .  A
C1667      C1668   1.402       .  A
C1667      C1674   1.508       .  S
C1668      C1669   1.402       .  A
C1668      H1673   1.084       .  S
C1669      C1670   1.415       .  A
C1670      C1671   1.508       .  S
C1671      H1675   1.111       .  S
C1671      H1676   1.107       .  S
C1671      H1677   1.110       .  S
C1674      H1678   1.110       .  S
C1674      H1679   1.107       .  S
C1674      H1680   1.111       .  S
C1681      C1682   1.402       .  A
C1681      C1686   1.399       .  A
C1681      H1688   1.084       .  S
C1682      C1683   1.414       .  A
C1683      C1684   1.409       .  A
C1683      C1690   1.505       .  S
C1684      C1685   1.407       .  A
C1684      H1689   1.084       .  S
C1685      C1686   1.417       .  A
C1686      C1687   1.509       .  S
C1687      H1691   1.111       .  S
C1687      H1692   1.110       .  S
C1687      H1693   1.106       .  S
C1690      H1694   1.110       .  S
C1690      H1695   1.107       .  S
C1690      H1696   1.111       .  S
C1697      C1698   1.407       .  A
C1697      C1702   1.408       .  A
C1697      H1704   1.084       .  S
C1698      C1699   1.422       .  A
C1699      C1700   1.399       .  A
C1699      C1706   1.511       .  S
C1700      C1701   1.400       .  A
C1700      H1705   1.084       .  S
C1701      C1702   1.415       .  A
C1702      C1703   1.506       .  S
C1703      H1707   1.111       .  S
C1703      H1708   1.108       .  S
C1703      H1709   1.110       .  S
C1706      H1710   1.110       .  S
C1706      H1711   1.110       .  S
C1706      H1712   1.111       .  S
C1713      C1714   1.401       .  A
C1713      C1718   1.401       .  A
C1713      H1720   1.084       .  S
C1714      C1715   1.416       .  A
C1715      C1716   1.409       .  A
C1715      C1722   1.506       .  S
C1716      C1717   1.406       .  A
C1716      H1721   1.084       .  S
C1717      C1718   1.420       .  A
C1718      C1719   1.510       .  S
C1719      H1723   1.111       .  S
C1719      H1724   1.109       .  S
C1719      H1725   1.111       .  S
C1722      H1726   1.110       .  S
C1722      H1727   1.108       .  S
C1722      H1728   1.111       .  S
C1729      C1730   1.400       .  A
C1729      C1734   1.402       .  A
C1729      H1736   1.084       .  S
C1730      C1731   1.411       .  A
C1731      C1732   1.405       .  A
C1731      C1738   1.507       .  S
C1732      C1733   1.402       .  A
C1732      H1737   1.084       .  S
C1733      C1734   1.412       .  A
C1734      C1735   1.507       .  S
C1735      H1739   1.111       .  S
C1735      H1740   1.109       .  S
C1735      H1741   1.111       .  S
C1738      H1742   1.110       .  S
C1738      H1743   1.110       .  S
C1738      H1744   1.111       .  S
C1745      C1746   1.405       .  A
C1745      C1750   1.400       .  A
C1745      H1752   1.084       .  S
C1746      C1747   1.418       .  A
C1747      C1748   1.411       .  A
C1747      C1754   1.506       .  S
C1748      C1749   1.408       .  A
C1748      H1753   1.083       .  S
C1749      C1750   1.419       .  A
C1750      C1751   1.509       .  S
C1751      H1755   1.111       .  S
C1751      H1756   1.110       .  S
C1751      H1757   1.107       .  S
C1754      H1758   1.110       .  S
C1754      H1759   1.110       .  S
C1754      H1760   1.111       .  S
C1761      C1762   1.405       .  A
C1761      C1766   1.399       .  A
C1761      H1768   1.084       .  S
C1762      C1763   1.418       .  A
C1763      C1764   1.411       .  A
C1763      C1770   1.506       .  S
C1764      C1765   1.405       .  A
C1764      H1769   1.084       .  S
C1765      C1766   1.414       .  A
C1766      C1767   1.510       .  S
C1767      H1771   1.111       .  S
C1767      H1772   1.106       .  S
C1767      H1773   1.110       .  S
C1770      H1774   1.109       .  S
C1770      H1775   1.110       .  S
C1770      H1776   1.111       .  S
C1777      C1778   1.404       .  A
C1777      C1782   1.407       .  A
C1777      H1784   1.084       .  S
C1778      C1779   1.416       .  A
C1779      C1780   1.402       .  A
C1779      C1786   1.509       .  S
C1780      C1781   1.405       .  A
C1780      H1785   1.084       .  S
C1781      C1782   1.418       .  A
C1782      C1783   1.507       .  S
C1783      H1787   1.111       .  S
C1783      H1788   1.110       .  S
C1783      H1789   1.108       .  S
C1786      H1790   1.110       .  S
C1786      H1791   1.106       .  S
C1786      H1792   1.111       .  S
C1793      C1794   1.404       .  A
C1793      C1798   1.403       .  A
C1793      H1800   1.084       .  S
C1794      C1795   1.418       .  A
C1795      C1796   1.406       .  A
C1795      C1802   1.507       .  S
C1796      C1797   1.403       .  A
C1796      H1801   1.084       .  S
C1797      C1798   1.415       .  A
C1798      C1799   1.508       .  S
C1799      H1803   1.111       .  S
C1799      H1804   1.107       .  S
C1799      H1805   1.110       .  S
C1802      H1806   1.110       .  S
C1802      H1807   1.107       .  S
C1802      H1808   1.111       .  S
C1809      C1810   1.402       .  A
C1809      C1814   1.400       .  A
C1809      H1816   1.084       .  S
C1810      C1811   1.417   1_554  A
C1811      C1812   1.408       .  A
C1811      C1818   1.506       .  S
C1812      C1813   1.405   1_556  A
C1812      H1817   1.084       .  S
C1813      C1814   1.420       .  A
C1814      C1815   1.510       .  S
C1815      H1819   1.111       .  S
C1815      H1820   1.109       .  S
C1815      H1821   1.109       .  S
C1818      H1822   1.108       .  S
C1818      H1823   1.110       .  S
C1818      H1824   1.111       .  S
C1825      C1826   1.407       .  A
C1825      C1830   1.410       .  A
C1825      H1832   1.084       .  S
C1826      C1827   1.416   1_565  A
C1827      C1828   1.399       .  A
C1827      C1834   1.509       .  S
C1828      C1829   1.403   1_545  A
C1828      H1833   1.084       .  S
C1829      C1830   1.414       .  A
C1830      C1831   1.505       .  S
C1831      H1835   1.111       .  S
C1831      H1836   1.110       .  S
C1831      H1837   1.107       .  S
C1834      H1838   1.110       .  S
C1834      H1839   1.106       .  S
C1834      H1840   1.111       .  S
C1841      C1842   1.404   1_655  A
C1841      C1846   1.407       .  A
C1841      H1848   1.084       .  S
C1842      C1843   1.413       .  A
C1843      C1844   1.401       .  A
C1843      C1850   1.508       .  S
C1844      C1845   1.401       .  A
C1844      H1849   1.084       .  S
C1845      C1846   1.413   1_455  A
C1846      C1847   1.507       .  S
C1847      H1851   1.111       .  S
C1847      H1852   1.110       .  S
C1847      H1853   1.111       .  S
C1850      H1854   1.111       .  S
C1850      H1855   1.108       .  S
C1850      H1856   1.111       .  S
C1857      C1858   1.403       .  A
C1857      C1862   1.407       .  A
C1857      H1864   1.084       .  S
C1858      C1859   1.411   1_655  A
C1859      C1860   1.401       .  A
C1859      C1866   1.507       .  S
C1860      C1861   1.400   1_455  A
C1860      H1865   1.079       .  S
C1861      C1862   1.411       .  A
C1862      C1863   1.506       .  S
C1863      H1867   1.111       .  S
C1863      H1868   1.110       .  S
C1863      H1869   1.110       .  S
C1866      H1870   1.109       .  S
C1866      H1871   1.111       .  S
C1866      H1872   1.111       .  S
C1873      C1874   1.401   1_455  A
C1873      C1878   1.404       .  A
C1873      H1880   1.084       .  S
C1874      C1875   1.411       .  A
C1875      C1876   1.404       .  A
C1875      C1882   1.506       .  S
C1876      C1877   1.401       .  A
C1876      H1881   1.084       .  S
C1877      C1878   1.411   1_655  A
C1878      C1879   1.506       .  S
C1879      H1883   1.111       .  S
C1879      H1884   1.108       .  S
C1879      H1885   1.110       .  S
C1882      H1886   1.110       .  S
C1882      H1887   1.111       .  S
C1882      H1888   1.111       .  S
C1889      C1890   1.403   1_455  A
C1889      C1894   1.404       .  A
C1889      H1896   1.084       .  S
C1890      C1891   1.414       .  A
C1891      C1892   1.404       .  A
C1891      C1898   1.507       .  S
C1892      C1893   1.402       .  A
C1892      H1897   1.084       .  S
C1893      C1894   1.413   1_655  A
C1894      C1895   1.507       .  S
C1895      H1899   1.111       .  S
C1895      H1900   1.111       .  S
C1895      H1901   1.108       .  S
C1898      H1902   1.108       .  S
C1898      H1903   1.111       .  S
C1898      H1904   1.111       .  S
C1905      C1906   1.401   1_545  A
C1905      C1910   1.400       .  A
C1905      H1912   1.084       .  S
C1906      C1907   1.415       .  A
C1907      C1908   1.408       .  A
C1907      C1914   1.506       .  S
C1908      C1909   1.406       .  A
C1908      H1913   1.084       .  S
C1909      C1910   1.420   1_565  A
C1910      C1911   1.510       .  S
C1911      H1915   1.111       .  S
C1911      H1916   1.109       .  S
C1911      H1917   1.109       .  S
C1914      H1918   1.110       .  S
C1914      H1919   1.108       .  S
C1914      H1920   1.111       .  S
C1921      C1922   1.406       .  A
C1921      C1926   1.409       .  A
C1921      H1928   1.084       .  S
C1922      C1923   1.421   1_565  A
C1923      C1924   1.400       .  A
C1923      C1930   1.511       .  S
C1924      C1925   1.402   1_545  A
C1924      H1929   1.083       .  S
C1925      C1926   1.418       .  A
C1926      C1927   1.506       .  S
C1927      H1931   1.111       .  S
C1927      H1932   1.108       .  S
C1927      H1933   1.110       .  S
C1930      H1934   1.108       .  S
C1930      H1935   1.110   1_545  S
C1930      H1936   1.111       .  S
C1937      C1938   1.405       .  A
C1937      C1942   1.403       .  A
C1937      H1944   1.084       .  S
C1938      C1939   1.416   1_565  A
C1939      C1940   1.402       .  A
C1939      C1946   1.508       .  S
C1940      C1941   1.403   1_545  A
C1940      H1945   1.084       .  S
C1941      C1942   1.414       .  A
C1942      C1943   1.507       .  S
C1943      H1947   1.111       .  S
C1943      H1948   1.110       .  S
C1943      H1949   1.107       .  S
C1946      H1950   1.107       .  S
C1946      H1951   1.110       .  S
C1946      H1952   1.111       .  S
C1953      C1954   1.401       .  A
C1953      C1958   1.399       .  A
C1953      H1960   1.084       .  S
C1954      C1955   1.418   1_554  A
C1955      C1956   1.411       .  A
C1955      C1962   1.506       .  S
C1956      C1957   1.406   1_556  A
C1956      H1961   1.084       .  S
C1957      C1958   1.422       .  A
C1958      C1959   1.511       .  S
C1959      H1963   1.111       .  S
C1959      H1964   1.110       .  S
C1959      H1965   1.109       .  S
C1962      H1966   1.108       .  S
C1962      H1967   1.110       .  S
C1962      H1968   1.111       .  S
C1969      C1970   1.405   1_556  A
C1969      C1974   1.408       .  A
C1969      H1976   1.084       .  S
C1970      C1971   1.412       .  A
C1971      C1972   1.399       .  A
C1971      C1978   1.508       .  S
C1972      C1973   1.402       .  A
C1972      H1977   1.083       .  S
C1973      C1974   1.413   1_554  A
C1974      C1975   1.503       .  S
C1975      H1979   1.111       .  S
C1975      H1980   1.108       .  S
C1975      H1981   1.110       .  S
C1978      H1982   1.107       .  S
C1978      H1983   1.110       .  S
C1978      H1984   1.111       .  S
C1985      C1986   1.404   1_556  A
C1985      C1990   1.409       .  A
C1985      H1992   1.084       .  S
C1986      C1987   1.417       .  A
C1987      C1988   1.398       .  A
C1987      C1994   1.509       .  S
C1988      C1989   1.401       .  A
C1988      H1993   1.084       .  S
C1989      C1990   1.418   1_554  A
C1990      C1991   1.506       .  S
C1991      H1995   1.111       .  S
C1991      H1996   1.110       .  S
C1991      H1997   1.108       .  S
C1994      H1998   1.109       .  S
C1994      H1999   1.107       .  S
C1994      H2000   1.111       .  S
C2001      C2002   1.403   1_556  A
C2001      C2006   1.403       .  A
C2001      H2008   1.084       .  S
C2002      C2003   1.415       .  A
C2003      C2004   1.401       .  A
C2003      C2010   1.508       .  S
C2004      C2005   1.403       .  A
C2004      H2009   1.084       .  S
C2005      C2006   1.416   1_554  A
C2006      C2007   1.507       .  S
C2007      H2011   1.111       .  S
C2007      H2012   1.107       .  S
C2007      H2013   1.110       .  S
C2010      H2014   1.110       .  S
C2010      H2015   1.107       .  S
C2010      H2016   1.111       .  S
C2017      C2018   1.404   1_545  A
C2017      C2022   1.410       .  A
C2017      H2024   1.084       .  S
C2018      C2019   1.417       .  A
C2019      C2020   1.398       .  A
C2019      C2026   1.510       .  S
C2020      C2021   1.402       .  A
C2020      H2025   1.084       .  S
C2021      C2022   1.418   1_565  A
C2022      C2023   1.506       .  S
C2023      H2027   1.111       .  S
C2023      H2028   1.108       .  S
C2023      H2029   1.110       .  S
C2026      H2030   1.109       .  S
C2026      H2031   1.109       .  S
C2026      H2032   1.111       .  S
C2033      C2034   1.402       .  A
C2033      C2038   1.406       .  A
C2033      H2040   1.085       .  S
C2034      C2035   1.413       .  A
C2035      C2036   1.398       .  A
C2035      C2042   1.509       .  S
C2036      C2037   1.400       .  A
C2036      H2041   1.085       .  S
C2037      C2038   1.415       .  A
C2038      C2039   1.506       .  S
C2039      H2043   1.111       .  S
C2039      H2044   1.110       .  S
C2039      H2045   1.108       .  S
C2042      H2046   1.109       .  S
C2042      H2047   1.109       .  S
C2042      H2048   1.111       .  S
C2049      C2050   1.401       .  A
C2049      C2054   1.402       .  A
C2049      H2056   1.085       .  S
C2050      C2051   1.412   1_655  A
C2051      C2052   1.407       .  A
C2051      C2058   1.507       .  S
C2052      C2053   1.404   1_455  A
C2052      H2057   1.084       .  S
C2053      C2054   1.413       .  A
C2054      C2055   1.507       .  S
C2055      H2059   1.111       .  S
C2055      H2060   1.111       .  S
C2055      H2061   1.108       .  S
C2058      H2062   1.110       .  S
C2058      H2063   1.111       .  S
C2058      H2064   1.111       .  S
C2065      C2066   1.407       .  A
C2065      C2070   1.411       .  A
C2065      H2072   1.084       .  S
C2066      C2067   1.415       .  A
C2067      C2068   1.399       .  A
C2067      C2074   1.510       .  S
C2068      C2069   1.405       .  A
C2068      H2073   1.084       .  S
C2069      C2070   1.417       .  A
C2070      C2071   1.506       .  S
C2071      H2075   1.111       .  S
C2071      H2076   1.110       .  S
C2071      H2077   1.110       .  S
C2074      H2078   1.106       .  S
C2074      H2079   1.110       .  S
C2074      H2080   1.111       .  S
C2081      C2082   1.405       .  A
C2081      C2086   1.407       .  A
C2081      H2088   1.084       .  S
C2082      C2083   1.417       .  A
C2083      C2084   1.401       .  A
C2083      C2090   1.510       .  S
C2084      C2085   1.401       .  A
C2084      H2089   1.084       .  S
C2085      C2086   1.415       .  A
C2086      C2087   1.506       .  S
C2087      H2091   1.111       .  S
C2087      H2092   1.110       .  S
C2087      H2093   1.108       .  S
C2090      H2094   1.109       .  S
C2090      H2095   1.110       .  S
C2090      H2096   1.111       .  S
C2097      C2098   1.405       .  A
C2097      C2102   1.407       .  A
C2097      H2104   1.084       .  S
C2098      C2099   1.418       .  A
C2099      C2100   1.399       .  A
C2099      C2106   1.510       .  S
C2100      C2101   1.402       .  A
C2100      H2105   1.084       .  S
C2101      C2102   1.416       .  A
C2102      C2103   1.506       .  S
C2103      H2107   1.111       .  S
C2103      H2108   1.108       .  S
C2103      H2109   1.110       .  S
C2106      H2110   1.110       .  S
C2106      H2111   1.109       .  S
C2106      H2112   1.111       .  S
C2113      C2114   1.408       .  A
C2113      C2118   1.409       .  A
C2113      H2120   1.083       .  S
C2114      C2115   1.421       .  A
C2115      C2116   1.402       .  A
C2115      C2122   1.510       .  S
C2116      C2117   1.404       .  A
C2116      H2121   1.083       .  S
C2117      C2118   1.417       .  A
C2118      C2119   1.506       .  S
C2119      H2123   1.111       .  S
C2119      H2124   1.110       .  S
C2119      H2125   1.108       .  S
C2122      H2126   1.110       .  S
C2122      H2127   1.110       .  S
C2122      H2128   1.111       .  S
C2129      C2130   1.404       .  A
C2129      C2134   1.404       .  A
C2129      H2136   1.084       .  S
C2130      C2131   1.416       .  A
C2131      C2132   1.403       .  A
C2131      C2138   1.508       .  S
C2132      C2133   1.403       .  A
C2132      H2137   1.084       .  S
C2133      C2134   1.416       .  A
C2134      C2135   1.508       .  S
C2135      H2139   1.111       .  S
C2135      H2140   1.110       .  S
C2135      H2141   1.107       .  S
C2138      H2142   1.107       .  S
C2138      H2143   1.110       .  S
C2138      H2144   1.111       .  S
C2145      C2146   1.401   1_556  A
C2145      C2150   1.399       .  A
C2145      H2152   1.084       .  S
C2146      C2147   1.417       .  A
C2147      C2148   1.410       .  A
C2147      C2154   1.506       .  S
C2148      C2149   1.406       .  A
C2148      H2153   1.084       .  S
C2149      C2150   1.421   1_554  A
C2150      C2151   1.511       .  S
C2151      H2155   1.111       .  S
C2151      H2156   1.110       .  S
C2151      H2157   1.110       .  S
C2154      H2158   1.110       .  S
C2154      H2159   1.108       .  S
C2154      H2160   1.111       .  S
C2161      C2162   1.406   1_556  A
C2161      C2166   1.409       .  A
C2161      H2168   1.084       .  S
C2162      C2163   1.413       .  A
C2163      C2164   1.399       .  A
C2163      C2170   1.509       .  S
C2164      C2165   1.405       .  A
C2164      H2169   1.084       .  S
C2165      C2166   1.416   1_554  A
C2166      C2167   1.506       .  S
C2167      H2171   1.111       .  S
C2167      H2172   1.110   1_556  S
C2167      H2173   1.108       .  S
C2170      H2174   1.110       .  S
C2170      H2175   1.106       .  S
C2170      H2176   1.111       .  S
C2177      C2178   1.404       .  A
C2177      C2182   1.399       .  A
C2177      H2184   1.084       .  S
C2178      C2179   1.415   1_565  A
C2179      C2180   1.409       .  A
C2179      C2186   1.506       .  S
C2180      C2181   1.405   1_545  A
C2180      H2185   1.084       .  S
C2181      C2182   1.414       .  A
C2182      C2183   1.509       .  S
C2183      H2187   1.111       .  S
C2183      H2188   1.107       .  S
C2183      H2189   1.110       .  S
C2186      H2190   1.110       .  S
C2186      H2191   1.110       .  S
C2186      H2192   1.111       .  S
C2193      C2194   1.405   1_545  A
C2193      C2198   1.400       .  A
C2193      H2200   1.084       .  S
C2194      C2195   1.416       .  A
C2195      C2196   1.410       .  A
C2195      C2202   1.506       .  S
C2196      C2197   1.407       .  A
C2196      H2201   1.084       .  S
C2197      C2198   1.416   1_565  A
C2198      C2199   1.509       .  S
C2199      H2203   1.111       .  S
C2199      H2204   1.107       .  S
C2199      H2205   1.110       .  S
C2202      H2206   1.110       .  S
C2202      H2207   1.110       .  S
C2202      H2208   1.111       .  S
C2209      C2210   1.405       .  A
C2209      C2214   1.407       .  A
C2209      H2216   1.084       .  S
C2210      C2211   1.415       .  A
C2211      C2212   1.400       .  A
C2211      C2218   1.508       .  S
C2212      C2213   1.400       .  A
C2212      H2217   1.084       .  S
C2213      C2214   1.412       .  A
C2214      C2215   1.506       .  S
C2215      H2219   1.111       .  S
C2215      H2220   1.110       .  S
C2215      H2221   1.111       .  S
C2218      H2222   1.110       .  S
C2218      H2223   1.107       .  S
C2218      H2224   1.111       .  S
C2225      C2226   1.406       .  A
C2225      C2230   1.409       .  A
C2225      H2232   1.084       .  S
C2226      C2227   1.416       .  A
C2227      C2228   1.400       .  A
C2227      C2234   1.509       .  S
C2228      C2229   1.403       .  A
C2228      H2233   1.084       .  S
C2229      C2230   1.415       .  A
C2230      C2231   1.506       .  S
C2231      H2235   1.111       .  S
C2231      H2236   1.110       .  S
C2231      H2237   1.110       .  S
C2234      H2238   1.110       .  S
C2234      H2239   1.106       .  S
C2234      H2240   1.111       .  S
C2241      C2242   1.402       .  A
C2241      C2246   1.401       .  A
C2241      H2248   1.084       .  S
C2242      C2243   1.414       .  A
C2243      C2244   1.406       .  A
C2243      C2250   1.506       .  S
C2244      C2245   1.402       .  A
C2244      H2249   1.084       .  S
C2245      C2246   1.412       .  A
C2246      C2247   1.509       .  S
C2247      H2251   1.111       .  S
C2247      H2252   1.111       .  S
C2247      H2253   1.109       .  S
C2250      H2254   1.109       .  S
C2250      H2255   1.111       .  S
C2250      H2256   1.111       .  S
C2257      C2258   1.405       .  A
C2257      C2262   1.406       .  A
C2257      H2264   1.084       .  S
C2258      C2259   1.414       .  A
C2259      C2260   1.401       .  A
C2259      C2266   1.508       .  S
C2260      C2261   1.401       .  A
C2260      H2265   1.085       .  S
C2261      C2262   1.411       .  A
C2262      C2263   1.506       .  S
C2263      H2267   1.111       .  S
C2263      H2268   1.110       .  S
C2263      H2269   1.110       .  S
C2266      H2270   1.111       .  S
C2266      H2271   1.107       .  S
C2266      H2272   1.111       .  S
C2273      C2274   1.402       .  A
C2273      C2278   1.404       .  A
C2273      H2280   1.084       .  S
C2274      C2275   1.413       .  A
C2275      C2276   1.403       .  A
C2275      C2282   1.507       .  S
C2276      C2277   1.402       .  A
C2276      H2281   1.084       .  S
C2277      C2278   1.412       .  A
C2278      C2279   1.507       .  S
C2279      H2283   1.111       .  S
C2279      H2284   1.109       .  S
C2279      H2285   1.111       .  S
C2282      H2286   1.111       .  S
C2282      H2287   1.108       .  S
C2282      H2288   1.111       .  S
C2289      C2290   1.407       .  A
C2289      C2294   1.410       .  A
C2289      H2296   1.083       .  S
C2290      C2291   1.418       .  A
C2291      C2292   1.400       .  A
C2291      C2298   1.509       .  S
C2292      C2293   1.403       .  A
C2292      H2297   1.084       .  S
C2293      C2294   1.416       .  A
C2294      C2295   1.506       .  S
C2295      H2299   1.111       .  S
C2295      H2300   1.110       .  S
C2295      H2301   1.108       .  S
C2298      H2302   1.110       .  S
C2298      H2303   1.107       .  S
C2298      H2304   1.111       .  S
C2305      C2306   1.407       .  A
C2305      C2310   1.411       .  A
C2305      H2312   1.084       .  S
C2306      C2307   1.416       .  A
C2307      C2308   1.397       .  A
C2307      C2314   1.510       .  S
C2308      C2309   1.403       .  A
C2308      H2313   1.084       .  S
C2309      C2310   1.415       .  A
C2310      C2311   1.506       .  S
C2311      H2315   1.111       .  S
C2311      H2316   1.110       .  S
C2311      H2317   1.110       .  S
C2314      H2318   1.110       .  S
C2314      H2319   1.106       .  S
C2314      H2320   1.111       .  S
C2321      C2322   1.407       .  A
C2321      C2326   1.411       .  A
C2321      H2328   1.084       .  S
C2322      C2323   1.415       .  A
C2323      C2324   1.399       .  A
C2323      C2330   1.509       .  S
C2324      C2325   1.404       .  A
C2324      H2329   1.084       .  S
C2325      C2326   1.415       .  A
C2326      C2327   1.505       .  S
C2327      H2331   1.111       .  S
C2327      H2332   1.110       .  S
C2327      H2333   1.110       .  S
C2330      H2334   1.110       .  S
C2330      H2335   1.106       .  S
C2330      H2336   1.111       .  S
C2337      C2338   1.402       .  A
C2337      C2342   1.404       .  A
C2337      H2344   1.084       .  S
C2338      C2339   1.413       .  A
C2339      C2340   1.405       .  A
C2339      C2346   1.506       .  S
C2340      C2341   1.402       .  A
C2340      H2345   1.084       .  S
C2341      C2342   1.410       .  A
C2342      C2343   1.505       .  S
C2343      H2347   1.111       .  S
C2343      H2348   1.110       .  S
C2343      H2349   1.109       .  S
C2346      H2350   1.111       .  S
C2346      H2351   1.109       .  S
C2346      H2352   1.111       .  S
C2353      C2354   1.404       .  A
C2353      C2358   1.403       .  A
C2353      H2360   1.084       .  S
C2354      C2355   1.418       .  A
C2355      C2356   1.405       .  A
C2355      C2362   1.507       .  S
C2356      C2357   1.403       .  A
C2356      H2361   1.084       .  S
C2357      C2358   1.416       .  A
C2358      C2359   1.508       .  S
C2359      H2363   1.111       .  S
C2359      H2364   1.107       .  S
C2359      H2365   1.110       .  S
C2362      H2366   1.110       .  S
C2362      H2367   1.107       .  S
C2362      H2368   1.111       .  S
C2369      C2370   1.402       .  A
C2369      C2374   1.405       .  A
C2369      H2376   1.084       .  S
C2370      C2371   1.411   1_655  A
C2371      C2372   1.404       .  A
C2371      C2378   1.506       .  S
C2372      C2373   1.401   1_455  A
C2372      H2377   1.084       .  S
C2373      C2374   1.411       .  A
C2374      C2375   1.507       .  S
C2375      H2379   1.111       .  S
C2375      H2380   1.111       .  S
C2375      H2381   1.110       .  S
C2378      H2382   1.110       .  S
C2378      H2383   1.110       .  S
C2378      H2384   1.111       .  S
C2385      C2386   1.405   1_455  A
C2385      C2390   1.408       .  A
C2385      H2392   1.084       .  S
C2386      C2387   1.414       .  A
C2387      C2388   1.401       .  A
C2387      C2394   1.508       .  S
C2388      C2389   1.401       .  A
C2388      H2393   1.084       .  S
C2389      C2390   1.413   1_655  A
C2390      C2391   1.506       .  S
C2391      H2395   1.111       .  S
C2391      H2396   1.110       .  S
C2391      H2397   1.110       .  S
C2394      H2398   1.111       .  S
C2394      H2399   1.107       .  S
C2394      H2400   1.111       .  S
C2401      C2402   1.403   1_455  A
C2401      C2406   1.407       .  A
C2401      H2408   1.084       .  S
C2402      C2403   1.413       .  A
C2403      C2404   1.402       .  A
C2403      C2410   1.508       .  S
C2404      C2405   1.401       .  A
C2404      H2409   1.084       .  S
C2405      C2406   1.411   1_655  A
C2406      C2407   1.504       .  S
C2407      H2411   1.111       .  S
C2407      H2412   1.111       .  S
C2407      H2413   1.110       .  S
C2410      H2414   1.108       .  S
C2410      H2415   1.111       .  S
C2410      H2416   1.111       .  S
C2417      C2418   1.400   1_455  A
C2417      C2422   1.402       .  A
C2417      H2424   1.084       .  S
C2418      C2419   1.412       .  A
C2419      C2420   1.406       .  A
C2419      C2426   1.504       .  S
C2420      C2421   1.403       .  A
C2420      H2425   1.084       .  S
C2421      C2422   1.414   1_655  A
C2422      C2423   1.507       .  S
C2423      H2427   1.111       .  S
C2423      H2428   1.108       .  S
C2423      H2429   1.111       .  S
C2426      H2430   1.111       .  S
C2426      H2431   1.110       .  S
C2426      H2432   1.111       .  S
C2433      C2434   1.401   1_455  A
C2433      C2438   1.404       .  A
C2433      H2440   1.084       .  S
C2434      C2435   1.411       .  A
C2435      C2436   1.404       .  A
C2435      C2442   1.506       .  S
C2436      C2437   1.401       .  A
C2436      H2441   1.084       .  S
C2437      C2438   1.411   1_655  A
C2438      C2439   1.506       .  S
C2439      H2443   1.111       .  S
C2439      H2444   1.110       .  S
C2439      H2445   1.110       .  S
C2442      H2446   1.110       .  S
C2442      H2447   1.110       .  S
C2442      H2448   1.111       .  S
C2449      C2450   1.400       .  A
C2449      C2454   1.399       .  A
C2449      H2456   1.084       .  S
C2450      C2451   1.418       .  A
C2451      C2452   1.411       .  A
C2451      C2458   1.506   1_554  S
C2452      C2453   1.406       .  A
C2452      H2457   1.084   1_554  S
C2453      C2454   1.423       .  A
C2454      C2455   1.511       .  S
C2455      H2459   1.111       .  S
C2455      H2460   1.110       .  S
C2455      H2461   1.110       .  S
C2458      H2462   1.110       .  S
C2458      H2463   1.108   1_556  S
C2458      H2464   1.111       .  S
C2465      C2466   1.406       .  A
C2465      C2470   1.409       .  A
C2465      H2472   1.084       .  S
C2466      C2467   1.414   1_554  A
C2467      C2468   1.399       .  A
C2467      C2474   1.509       .  S
C2468      C2469   1.405   1_556  A
C2468      H2473   1.084       .  S
C2469      C2470   1.416       .  A
C2470      C2471   1.505       .  S
C2471      H2475   1.111       .  S
C2471      H2476   1.110       .  S
C2471      H2477   1.108       .  S
C2474      H2478   1.110       .  S
C2474      H2479   1.106       .  S
C2474      H2480   1.111       .  S
C2481      C2482   1.402       .  A
C2481      C2486   1.400       .  A
C2481      H2488   1.083       .  S
C2482      C2483   1.417       .  A
C2483      C2484   1.409       .  A
C2483      C2490   1.506       .  S
C2484      C2485   1.408       .  A
C2484      H2489   1.083       .  S
C2485      C2486   1.423       .  A
C2486      C2487   1.511   1_554  S
C2487      H2491   1.111       .  S
C2487      H2492   1.110       .  S
C2487      H2493   1.110   1_556  S
C2490      H2494   1.108       .  S
C2490      H2495   1.110       .  S
C2490      H2496   1.111       .  S
C2497      C2498   1.403   1_556  A
C2497      C2502   1.403       .  A
C2497      H2504   1.084       .  S
C2498      C2499   1.416       .  A
C2499      C2500   1.403       .  A
C2499      C2506   1.507       .  S
C2500      C2501   1.403       .  A
C2500      H2505   1.084       .  S
C2501      C2502   1.416   1_554  A
C2502      C2503   1.508       .  S
C2503      H2507   1.111       .  S
C2503      H2508   1.107       .  S
C2503      H2509   1.110       .  S
C2506      H2510   1.110       .  S
C2506      H2511   1.107       .  S
C2506      H2512   1.111       .  S
C2513      C2514   1.405   1_556  A
C2513      C2518   1.411       .  A
C2513      H2520   1.084       .  S
C2514      C2515   1.419       .  A
C2515      C2516   1.401       .  A
C2515      C2522   1.510       .  S
C2516      C2517   1.401       .  A
C2516      H2521   1.084       .  S
C2517      C2518   1.418   1_554  A
C2518      C2519   1.506       .  S
C2519      H2523   1.111       .  S
C2519      H2524   1.108       .  S
C2519      H2525   1.110       .  S
C2522      H2526   1.110       .  S
C2522      H2527   1.109       .  S
C2522      H2528   1.111       .  S
C2529      C2530   1.404       .  A
C2529      C2534   1.407       .  A
C2529      H2536   1.084       .  S
C2530      C2531   1.414       .  A
C2531      C2532   1.401       .  A
C2531      C2538   1.508       .  S
C2532      C2533   1.402       .  A
C2532      H2537   1.084       .  S
C2533      C2534   1.413       .  A
C2534      C2535   1.505       .  S
C2535      H2539   1.111       .  S
C2535      H2540   1.110       .  S
C2535      H2541   1.110       .  S
C2538      H2542   1.107       .  S
C2538      H2543   1.111       .  S
C2538      H2544   1.111       .  S
C2545      C2546   1.403       .  A
C2545      C2550   1.407       .  A
C2545      H2552   1.084       .  S
C2546      C2547   1.414       .  A
C2547      C2548   1.400       .  A
C2547      C2554   1.509       .  S
C2548      C2549   1.402       .  A
C2548      H2553   1.084       .  S
C2549      C2550   1.415       .  A
C2550      C2551   1.506       .  S
C2551      H2555   1.111       .  S
C2551      H2556   1.110       .  S
C2551      H2557   1.108       .  S
C2554      H2558   1.109       .  S
C2554      H2559   1.111       .  S
C2554      H2560   1.111       .  S
C2561      C2562   1.403       .  A
C2561      C2566   1.405       .  A
C2561      H2568   1.084       .  S
C2562      C2563   1.412       .  A
C2563      C2564   1.402       .  A
C2563      C2570   1.507       .  S
C2564      C2565   1.400       .  A
C2564      H2569   1.083       .  S
C2565      C2566   1.411       .  A
C2566      C2567   1.507       .  S
C2567      H2571   1.111       .  S
C2567      H2572   1.110       .  S
C2567      H2573   1.111       .  S
C2570      H2574   1.111       .  S
C2570      H2575   1.109       .  S
C2570      H2576   1.111       .  S
C2577      C2578   1.404       .  A
C2577      C2582   1.406       .  A
C2577      H2584   1.084       .  S
C2578      C2579   1.414       .  A
C2579      C2580   1.401       .  A
C2579      C2586   1.508       .  S
C2580      C2581   1.401       .  A
C2580      H2585   1.084       .  S
C2581      C2582   1.411       .  A
C2582      C2583   1.503       .  S
C2583      H2587   1.111       .  S
C2583      H2588   1.110       .  S
C2583      H2589   1.110       .  S
C2586      H2590   1.107       .  S
C2586      H2591   1.111       .  S
C2586      H2592   1.111       .  S
C2593      C2594   1.401       .  A
C2593      C2598   1.403       .  A
C2593      H2600   1.084       .  S
C2594      C2595   1.410       .  A
C2595      C2596   1.403       .  A
C2595      C2602   1.506       .  S
C2596      C2597   1.401       .  A
C2596      H2601   1.084       .  S
C2597      C2598   1.410       .  A
C2598      C2599   1.506       .  S
C2599      H2603   1.111       .  S
C2599      H2604   1.110       .  S
C2599      H2605   1.110       .  S
C2602      H2606   1.110       .  S
C2602      H2607   1.110       .  S
C2602      H2608   1.111       .  S
C2609      C2610   1.402       .  A
C2609      C2614   1.401       .  A
C2609      H2616   1.084       .  S
C2610      C2611   1.414       .  A
C2611      C2612   1.407       .  A
C2611      C2618   1.506       .  S
C2612      C2613   1.404       .  A
C2612      H2617   1.084       .  S
C2613      C2614   1.413       .  A
C2614      C2615   1.509       .  S
C2615      H2619   1.111       .  S
C2615      H2620   1.109       .  S
C2615      H2621   1.111       .  S
C2618      H2622   1.111       .  S
C2618      H2623   1.109       .  S
C2618      H2624   1.111       .  S
C2625      C2626   1.403       .  A
C2625      C2630   1.400       .  A
C2625      H2632   1.084       .  S
C2626      C2627   1.418       .  A
C2627      C2628   1.409       .  A
C2627      C2634   1.506       .  S
C2628      C2629   1.405       .  A
C2628      H2633   1.084       .  S
C2629      C2630   1.419       .  A
C2630      C2631   1.511       .  S
C2631      H2635   1.111       .  S
C2631      H2636   1.110       .  S
C2631      H2637   1.110       .  S
C2634      H2638   1.108       .  S
C2634      H2639   1.110       .  S
C2634      H2640   1.111       .  S
C2641      C2642   1.407       .  A
C2641      C2646   1.409       .  A
C2641      H2648   1.084       .  S
C2642      C2643   1.416       .  A
C2643      C2644   1.396       .  A
C2643      C2650   1.509       .  S
C2644      C2645   1.402       .  A
C2644      H2649   1.084       .  S
C2645      C2646   1.414       .  A
C2646      C2647   1.506       .  S
C2647      H2651   1.111       .  S
C2647      H2652   1.110       .  S
C2647      H2653   1.110       .  S
C2650      H2654   1.110       .  S
C2650      H2655   1.107       .  S
C2650      H2656   1.111       .  S
C2657      C2658   1.406       .  A
C2657      C2662   1.409       .  A
C2657      H2664   1.084       .  S
C2658      C2659   1.418       .  A
C2659      C2660   1.400       .  A
C2659      C2666   1.509       .  S
C2660      C2661   1.402       .  A
C2660      H2665   1.084       .  S
C2661      C2662   1.416       .  A
C2662      C2663   1.506       .  S
C2663      H2667   1.111       .  S
C2663      H2668   1.110       .  S
C2663      H2669   1.110       .  S
C2666      H2670   1.110       .  S
C2666      H2671   1.106       .  S
C2666      H2672   1.111       .  S
C2673      C2674   1.404       .  A
C2673      C2678   1.404       .  A
C2673      H2680   1.084       .  S
C2674      C2675   1.417       .  A
C2675      C2676   1.403       .  A
C2675      C2682   1.508       .  S
C2676      C2677   1.403       .  A
C2676      H2681   1.084       .  S
C2677      C2678   1.416       .  A
C2678      C2679   1.507       .  S
C2679      H2683   1.111       .  S
C2679      H2684   1.107       .  S
C2679      H2685   1.110       .  S
C2682      H2686   1.110       .  S
C2682      H2687   1.107       .  S
C2682      H2688   1.111       .  S
C2689      C2690   1.405   1_545  A
C2689      C2694   1.410       .  A
C2689      H2696   1.084       .  S
C2690      C2691   1.413       .  A
C2691      C2692   1.399       .  A
C2691      C2698   1.509       .  S
C2692      C2693   1.405       .  A
C2692      H2697   1.084       .  S
C2693      C2694   1.417   1_565  A
C2694      C2695   1.506       .  S
C2695      H2699   1.111       .  S
C2695      H2700   1.110       .  S
C2695      H2701   1.110       .  S
C2698      H2702   1.110       .  S
C2698      H2703   1.107       .  S
C2698      H2704   1.111       .  S
C2705      C2706   1.403       .  A
C2705      C2710   1.400       .  A
C2705      H2712   1.083       .  S
C2706      C2707   1.418       .  A
C2707      C2708   1.411       .  A
C2707      C2714   1.506   1_565  S
C2708      C2709   1.408       .  A
C2708      H2713   1.084   1_565  S
C2709      C2710   1.422       .  A
C2710      C2711   1.511       .  S
C2711      H2715   1.111       .  S
C2711      H2716   1.108       .  S
C2711      H2717   1.110       .  S
C2714      H2718   1.108   1_545  S
C2714      H2719   1.110       .  S
C2714      H2720   1.111       .  S
C2721      C2722   1.405   1_545  A
C2721      C2726   1.408       .  A
C2721      H2728   1.084       .  S
C2722      C2723   1.415       .  A
C2723      C2724   1.400       .  A
C2723      C2730   1.509       .  S
C2724      C2725   1.403       .  A
C2724      H2729   1.084       .  S
C2725      C2726   1.415   1_565  A
C2726      C2727   1.505       .  S
C2727      H2731   1.111       .  S
C2727      H2732   1.110       .  S
C2727      H2733   1.106       .  S
C2730      H2734   1.111       .  S
C2730      H2735   1.106       .  S
C2730      H2736   1.111       .  S
C2737      C2738   1.403   1_545  A
C2737      C2742   1.404       .  A
C2737      H2744   1.084       .  S
C2738      C2739   1.416       .  A
C2739      C2740   1.403       .  A
C2739      C2746   1.507       .  S
C2740      C2741   1.403       .  A
C2740      H2745   1.084       .  S
C2741      C2742   1.417   1_565  A
C2742      C2743   1.508       .  S
C2743      H2747   1.111       .  S
C2743      H2748   1.107       .  S
C2743      H2749   1.110       .  S
C2746      H2750   1.110       .  S
C2746      H2751   1.107       .  S
C2746      H2752   1.111       .  S
C2753      C2754   1.404   1_655  A
C2753      C2758   1.407       .  A
C2753      H2760   1.085       .  S
C2754      C2755   1.414       .  A
C2755      C2756   1.401       .  A
C2755      C2762   1.508       .  S
C2756      C2757   1.402       .  A
C2756      H2761   1.084       .  S
C2757      C2758   1.417   1_455  A
C2758      C2759   1.508       .  S
C2759      H2763   1.111       .  S
C2759      H2764   1.106       .  S
C2759      H2765   1.110       .  S
C2762      H2766   1.110       .  S
C2762      H2767   1.107       .  S
C2762      H2768   1.111       .  S
C2769      C2770   1.401   1_455  A
C2769      C2774   1.404       .  A
C2769      H2776   1.084       .  S
C2770      C2771   1.412       .  A
C2771      C2772   1.406       .  A
C2771      C2778   1.506       .  S
C2772      C2773   1.401       .  A
C2772      H2777   1.084       .  S
C2773      C2774   1.412   1_655  A
C2774      C2775   1.506       .  S
C2775      H2779   1.111       .  S
C2775      H2780   1.111       .  S
C2775      H2781   1.109       .  S
C2778      H2782   1.110       .  S
C2778      H2783   1.110       .  S
C2778      H2784   1.111       .  S
C2785      C2786   1.402       .  A
C2785      C2790   1.402       .  A
C2785      H2792   1.084       .  S
C2786      C2787   1.414   1_655  A
C2787      C2788   1.406       .  A
C2787      C2794   1.506       .  S
C2788      C2789   1.402   1_455  A
C2788      H2793   1.085       .  S
C2789      C2790   1.412       .  A
C2790      C2791   1.508       .  S
C2791      H2795   1.111       .  S
C2791      H2796   1.109       .  S
C2791      H2797   1.111       .  S
C2794      H2798   1.111       .  S
C2794      H2799   1.109       .  S
C2794      H2800   1.111       .  S
C2801      C2802   1.403   1_455  A
C2801      C2806   1.406       .  A
C2801      H2808   1.084       .  S
C2802      C2803   1.412       .  A
C2803      C2804   1.404       .  A
C2803      C2810   1.506       .  S
C2804      C2805   1.401       .  A
C2804      H2809   1.084       .  S
C2805      C2806   1.411   1_655  A
C2806      C2807   1.507       .  S
C2807      H2811   1.111       .  S
C2807      H2812   1.111       .  S
C2807      H2813   1.110       .  S
C2810      H2814   1.110       .  S
C2810      H2815   1.111       .  S
C2810      H2816   1.111       .  S
C2817      C2818   1.401   1_455  A
C2817      C2822   1.404       .  A
C2817      H2824   1.084       .  S
C2818      C2819   1.411       .  A
C2819      C2820   1.405       .  A
C2819      C2826   1.506       .  S
C2820      C2821   1.402       .  A
C2820      H2825   1.084       .  S
C2821      C2822   1.411   1_655  A
C2822      C2823   1.506       .  S
C2823      H2827   1.111       .  S
C2823      H2828   1.110       .  S
C2823      H2829   1.110       .  S
C2826      H2830   1.110       .  S
C2826      H2831   1.110       .  S
C2826      H2832   1.111       .  S
C2833      C2834   1.406       .  A
C2833      C2838   1.400       .  A
C2833      H2840   1.084       .  S
C2834      C2835   1.417   1_565  A
C2835      C2836   1.412       .  A
C2835      C2842   1.506       .  S
C2836      C2837   1.409   1_545  A
C2836      H2841   1.084       .  S
C2837      C2838   1.418       .  A
C2838      C2839   1.509       .  S
C2839      H2843   1.111       .  S
C2839      H2844   1.107       .  S
C2839      H2845   1.110       .  S
C2842      H2846   1.110       .  S
C2842      H2847   1.111   1_545  S
C2842      H2848   1.111       .  S
C2849      C2850   1.404       .  A
C2849      C2854   1.407       .  A
C2849      H2856   1.084       .  S
C2850      C2851   1.414       .  A
C2851      C2852   1.401       .  A
C2851      C2858   1.508       .  S
C2852      C2853   1.401       .  A
C2852      H2857   1.084       .  S
C2853      C2854   1.412       .  A
C2854      C2855   1.505       .  S
C2855      H2859   1.111       .  S
C2855      H2860   1.110       .  S
C2855      H2861   1.110       .  S
C2858      H2862   1.107       .  S
C2858      H2863   1.111       .  S
C2858      H2864   1.111       .  S
C2865      C2866   1.403       .  A
C2865      C2870   1.401       .  A
C2865      H2872   1.084       .  S
C2866      C2867   1.415       .  A
C2867      C2868   1.407       .  A
C2867      C2874   1.506       .  S
C2868      C2869   1.404       .  A
C2868      H2873   1.084       .  S
C2869      C2870   1.415       .  A
C2870      C2871   1.509       .  S
C2871      H2875   1.111       .  S
C2871      H2876   1.109       .  S
C2871      H2877   1.111       .  S
C2874      H2878   1.110       .  S
C2874      H2879   1.108       .  S
C2874      H2880   1.111       .  S
C2881      C2882   1.402       .  A
C2881      C2886   1.402       .  A
C2881      H2888   1.084       .  S
C2882      C2883   1.414       .  A
C2883      C2884   1.406       .  A
C2883      C2890   1.506       .  S
C2884      C2885   1.401       .  A
C2884      H2889   1.084       .  S
C2885      C2886   1.411       .  A
C2886      C2887   1.508       .  S
C2887      H2891   1.111       .  S
C2887      H2892   1.109       .  S
C2887      H2893   1.111       .  S
C2890      H2894   1.111       .  S
C2890      H2895   1.109       .  S
C2890      H2896   1.111       .  S
C2897      C2898   1.402       .  A
C2897      C2902   1.402       .  A
C2897      H2904   1.084       .  S
C2898      C2899   1.415       .  A
C2899      C2900   1.407       .  A
C2899      C2906   1.506       .  S
C2900      C2901   1.402       .  A
C2900      H2905   1.084       .  S
C2901      C2902   1.412       .  A
C2902      C2903   1.508       .  S
C2903      H2907   1.111       .  S
C2903      H2908   1.111       .  S
C2903      H2909   1.109       .  S
C2906      H2910   1.108       .  S
C2906      H2911   1.111       .  S
C2906      H2912   1.111       .  S
C2913      C2914   1.402       .  A
C2913      C2918   1.405       .  A
C2913      H2920   1.085       .  S
C2914      C2915   1.413       .  A
C2915      C2916   1.403       .  A
C2915      C2922   1.507       .  S
C2916      C2917   1.402       .  A
C2916      H2921   1.084       .  S
C2917      C2918   1.413       .  A
C2918      C2919   1.507       .  S
C2919      H2923   1.111       .  S
C2919      H2924   1.111       .  S
C2919      H2925   1.108       .  S
C2922      H2926   1.108       .  S
C2922      H2927   1.111       .  S
C2922      H2928   1.111       .  S
C2929      C2930   1.404   1_655  A
C2929      C2934   1.407       .  A
C2929      H2936   1.084       .  S
C2930      C2931   1.413       .  A
C2931      C2932   1.402       .  A
C2931      C2938   1.507       .  S
C2932      C2933   1.400       .  A
C2932      H2937   1.085       .  S
C2933      C2934   1.411   1_455  A
C2934      C2935   1.506       .  S
C2935      H2939   1.111       .  S
C2935      H2940   1.111       .  S
C2935      H2941   1.110       .  S
C2938      H2942   1.108       .  S
C2938      H2943   1.111       .  S
C2938      H2944   1.111       .  S
C2945      C2946   1.403   1_455  A
C2945      C2950   1.403       .  A
C2945      H2952   1.084       .  S
C2946      C2947   1.414       .  A
C2947      C2948   1.406       .  A
C2947      C2954   1.507       .  S
C2948      C2949   1.402   1_655  A
C2948      H2953   1.084       .  S
C2949      C2950   1.411       .  A
C2950      C2951   1.508       .  S
C2951      H2955   1.111       .  S
C2951      H2956   1.109       .  S
C2951      H2957   1.110       .  S
C2954      H2958   1.111       .  S
C2954      H2959   1.109       .  S
C2954      H2960   1.111       .  S
C2961      C2962   1.401       .  A
C2961      C2966   1.400       .  A
C2961      H2968   1.084       .  S
C2962      C2963   1.416   1_655  A
C2963      C2964   1.409       .  A
C2963      C2970   1.506       .  S
C2964      C2965   1.404   1_455  A
C2964      H2969   1.084       .  S
C2965      C2966   1.415       .  A
C2966      C2967   1.506       .  S
C2967      H2971   1.111       .  S
C2967      H2972   1.109       .  S
C2967      H2973   1.110       .  S
C2970      H2974   1.110       .  S
C2970      H2975   1.108       .  S
C2970      H2976   1.111       .  S
C2977      C2978   1.401   1_455  A
C2977      C2982   1.403       .  A
C2977      H2984   1.084       .  S
C2978      C2979   1.412       .  A
C2979      C2980   1.406       .  A
C2979      C2986   1.506       .  S
C2980      C2981   1.401       .  A
C2980      H2985   1.084       .  S
C2981      C2982   1.411   1_655  A
C2982      C2983   1.506       .  S
C2983      H2987   1.111       .  S
C2983      H2988   1.108       .  S
C2983      H2989   1.111       .  S
C2986      H2990   1.111       .  S
C2986      H2991   1.110       .  S
C2986      H2992   1.111       .  S
C2993      C2994   1.402       .  A
C2993      C2998   1.404       .  A
C2993      H3000   1.084       .  S
C2994      C2995   1.413   1_655  A
C2995      C2996   1.404       .  A
C2995      C3002   1.507       .  S
C2996      C2997   1.403   1_455  A
C2996      H3001   1.084       .  S
C2997      C2998   1.414       .  A
C2998      C2999   1.507       .  S
C2999      H3003   1.111       .  S
C2999      H3004   1.108       .  S
C2999      H3005   1.111       .  S
C3002      H3006   1.111       .  S
C3002      H3007   1.108       .  S
C3002      H3008   1.111       .  S
C3009      C3010   1.407       .  A
C3009      C3014   1.409       .  A
C3009      H3016   1.084       .  S
C3010      C3011   1.416   1_565  A
C3011      C3012   1.400       .  A
C3011      C3018   1.509       .  S
C3012      C3013   1.402   1_545  A
C3012      H3017   1.084       .  S
C3013      C3014   1.413       .  A
C3014      C3015   1.506       .  S
C3015      H3019   1.111       .  S
C3015      H3020   1.110       .  S
C3015      H3021   1.110       .  S
C3018      H3022   1.110       .  S
C3018      H3023   1.106       .  S
C3018      H3024   1.111       .  S
C3025      C3026   1.403       .  A
C3025      C3030   1.399       .  A
C3025      H3032   1.084       .  S
C3026      C3027   1.420   1_565  A
C3027      C3028   1.411       .  A
C3027      C3034   1.505       .  S
C3028      C3029   1.404   1_545  A
C3028      H3033   1.084       .  S
C3029      C3030   1.417       .  A
C3030      C3031   1.511       .  S
C3031      H3035   1.111       .  S
C3031      H3036   1.109       .  S
C3031      H3037   1.110       .  S
C3034      H3038   1.110       .  S
C3034      H3039   1.108       .  S
C3034      H3040   1.111       .  S
C3041      C3042   1.405       .  A
C3041      C3046   1.409       .  A
C3041      H3048   1.084       .  S
C3042      C3043   1.413   1_565  A
C3043      C3044   1.399       .  A
C3043      C3050   1.509       .  S
C3044      C3045   1.405   1_545  A
C3044      H3049   1.084       .  S
C3045      C3046   1.417       .  A
C3046      C3047   1.506       .  S
C3047      H3051   1.111       .  S
C3047      H3052   1.110       .  S
C3047      H3053   1.110       .  S
C3050      H3054   1.110       .  S
C3050      H3055   1.107       .  S
C3050      H3056   1.111       .  S
C3057      C3058   1.404   1_545  A
C3057      C3062   1.399       .  A
C3057      H3064   1.084       .  S
C3058      C3059   1.415       .  A
C3059      C3060   1.409       .  A
C3059      C3066   1.506       .  S
C3060      C3061   1.406       .  A
C3060      H3065   1.084       .  S
C3061      C3062   1.414   1_565  A
C3062      C3063   1.509       .  S
C3063      H3067   1.111       .  S
C3063      H3068   1.107       .  S
C3063      H3069   1.110       .  S
C3066      H3070   1.110       .  S
C3066      H3071   1.110       .  S
C3066      H3072   1.111       .  S
C3073      C3074   1.403   1_545  A
C3073      C3078   1.403       .  A
C3073      H3080   1.084       .  S
C3074      C3075   1.415       .  A
C3075      C3076   1.402       .  A
C3075      C3082   1.508       .  S
C3076      C3077   1.403       .  A
C3076      H3081   1.084       .  S
C3077      C3078   1.416   1_565  A
C3078      C3079   1.507       .  S
C3079      H3083   1.111       .  S
C3079      H3084   1.110       .  S
C3079      H3085   1.107       .  S
C3082      H3086   1.107       .  S
C3082      H3087   1.110       .  S
C3082      H3088   1.111       .  S
C3089      C3090   1.404   1_556  A
C3089      C3094   1.408       .  A
C3089      H3096   1.084       .  S
C3090      C3091   1.415       .  A
C3091      C3092   1.399       .  A
C3091      C3098   1.507       .  S
C3092      C3093   1.400       .  A
C3092      H3097   1.085       .  S
C3093      C3094   1.416   1_554  A
C3094      C3095   1.506       .  S
C3095      H3099   1.111       .  S
C3095      H3100   1.108       .  S
C3095      H3101   1.110       .  S
C3098      H3102   1.110       .  S
C3098      H3103   1.108       .  S
C3098      H3104   1.111       .  S
C3105      C3106   1.406   1_556  A
C3105      C3110   1.410       .  A
C3105      H3112   1.084       .  S
C3106      C3107   1.414       .  A
C3107      C3108   1.400       .  A
C3107      C3114   1.509       .  S
C3108      C3109   1.405       .  A
C3108      H3113   1.084       .  S
C3109      C3110   1.416   1_554  A
C3110      C3111   1.506       .  S
C3111      H3115   1.111       .  S
C3111      H3116   1.110   1_556  S
C3111      H3117   1.108       .  S
C3114      H3118   1.110       .  S
C3114      H3119   1.106       .  S
C3114      H3120   1.111       .  S
C3121      C3122   1.404   1_556  A
C3121      C3126   1.397       .  A
C3121      H3128   1.082       .  S
C3122      C3123   1.420       .  A
C3123      C3124   1.412       .  A
C3123      C3130   1.505       .  S
C3124      C3125   1.407       .  A
C3124      H3129   1.084       .  S
C3125      C3126   1.421   1_554  A
C3126      C3127   1.512       .  S
C3127      H3131   1.111       .  S
C3127      H3132   1.105       .  S
C3127      H3133   1.110   1_556  S
C3130      H3134   1.108       .  S
C3130      H3135   1.110       .  S
C3130      H3136   1.111       .  S
C3137      C3138   1.404       .  A
C3137      C3142   1.397       .  A
C3137      H3144   1.084       .  S
C3138      C3139   1.415   1_554  A
C3139      C3140   1.409   1_556  A
C3139      C3146   1.506       .  S
C3140      C3141   1.408       .  A
C3140      H3145   1.084   1_554  S
C3141      C3142   1.416       .  A
C3142      C3143   1.509       .  S
C3143      H3147   1.111       .  S
C3143      H3148   1.107       .  S
C3143      H3149   1.110       .  S
C3146      H3150   1.110       .  S
C3146      H3151   1.110   1_556  S
C3146      H3152   1.111       .  S
C3153      C3154   1.402       .  A
C3153      C3158   1.401       .  A
C3153      H3160   1.084       .  S
C3154      C3155   1.415   1_554  A
C3155      C3156   1.403       .  A
C3155      C3162   1.507       .  S
C3156      C3157   1.403   1_556  A
C3156      H3161   1.084       .  S
C3157      C3158   1.415       .  A
C3158      C3159   1.508       .  S
C3159      H3163   1.111       .  S
C3159      H3164   1.107       .  S
C3159      H3165   1.110       .  S
C3162      H3166   1.110       .  S
C3162      H3167   1.107       .  S
C3162      H3168   1.111       .  S
C3169      C3170   1.399       .  A
C3169      C3174   1.399       .  A
C3169      H3176   1.084       .  S
C3170      C3171   1.413       .  A
C3171      C3172   1.407       .  A
C3171      C3178   1.506       .  S
C3172      C3173   1.405       .  A
C3172      H3177   1.084       .  S
C3173      C3174   1.417       .  A
C3174      C3175   1.510       .  S
C3175      H3179   1.111       .  S
C3175      H3180   1.111       .  S
C3175      H3181   1.109       .  S
C3178      H3182   1.109       .  S
C3178      H3183   1.110       .  S
C3178      H3184   1.111       .  S
C3185      C3186   1.401       .  A
C3185      C3190   1.397       .  A
C3185      H3192   1.083       .  S
C3186      C3187   1.417       .  A
C3187      C3188   1.409       .  A
C3187      C3194   1.506       .  S
C3188      C3189   1.406       .  A
C3188      H3193   1.084       .  S
C3189      C3190   1.421       .  A
C3190      C3191   1.510       .  S
C3191      H3195   1.111       .  S
C3191      H3196   1.109       .  S
C3191      H3197   1.105       .  S
C3194      H3198   1.110       .  S
C3194      H3199   1.108       .  S
C3194      H3200   1.111       .  S
C3201      C3202   1.400       .  A
C3201      C3206   1.398       .  A
C3201      H3208   1.084       .  S
C3202      C3203   1.416       .  A
C3203      C3204   1.408       .  A
C3203      C3210   1.506       .  S
C3204      C3205   1.404       .  A
C3204      H3209   1.084       .  S
C3205      C3206   1.416       .  A
C3206      C3207   1.510       .  S
C3207      H3211   1.111       .  S
C3207      H3212   1.109       .  S
C3207      H3213   1.111       .  S
C3210      H3214   1.110       .  S
C3210      H3215   1.108       .  S
C3210      H3216   1.111       .  S
C3217      C3218   1.402       .  A
C3217      C3222   1.405       .  A
C3217      H3224   1.084       .  S
C3218      C3219   1.415       .  A
C3219      C3220   1.399       .  A
C3219      C3226   1.509       .  S
C3220      C3221   1.401       .  A
C3220      H3225   1.084       .  S
C3221      C3222   1.416       .  A
C3222      C3223   1.507       .  S
C3223      H3227   1.111       .  S
C3223      H3228   1.110       .  S
C3223      H3229   1.108       .  S
C3226      H3230   1.109       .  S
C3226      H3231   1.111       .  S
C3226      H3232   1.111       .  S
C3233      C3234   1.402       .  A
C3233      C3238   1.400       .  A
C3233      H3240   1.084       .  S
C3234      C3235   1.414       .  A
C3235      C3236   1.400       .  A
C3235      C3242   1.508       .  S
C3236      C3237   1.403       .  A
C3236      H3241   1.084       .  S
C3237      C3238   1.414       .  A
C3238      C3239   1.508       .  S
C3239      H3243   1.111       .  S
C3239      H3244   1.110       .  S
C3239      H3245   1.107       .  S
C3242      H3246   1.107       .  S
C3242      H3247   1.110       .  S
C3242      H3248   1.111       .  S
C3249      C3250   1.407       .  A
C3249      C3254   1.409       .  A
C3249      H3256   1.084       .  S
C3250      C3251   1.421       .  A
C3251      C3252   1.398       .  A
C3251      C3258   1.511       .  S
C3252      C3253   1.400       .  A
C3252      H3257   1.084       .  S
C3253      C3254   1.415       .  A
C3254      C3255   1.506       .  S
C3255      H3259   1.111       .  S
C3255      H3260   1.108       .  S
C3255      H3261   1.110       .  S
C3258      H3262   1.111       .  S
C3258      H3263   1.110       .  S
C3258      H3264   1.111       .  S
C3265      C3266   1.406       .  A
C3265      C3270   1.409       .  A
C3265      H3272   1.084       .  S
C3266      C3267   1.415       .  A
C3267      C3268   1.400       .  A
C3267      C3274   1.509       .  S
C3268      C3269   1.405       .  A
C3268      H3273   1.084       .  S
C3269      C3270   1.416       .  A
C3270      C3271   1.506       .  S
C3271      H3275   1.111       .  S
C3271      H3276   1.110       .  S
C3271      H3277   1.110       .  S
C3274      H3278   1.110       .  S
C3274      H3279   1.107       .  S
C3274      H3280   1.111       .  S
C3281      C3282   1.400       .  A
C3281      C3286   1.400       .  A
C3281      H3288   1.084       .  S
C3282      C3283   1.415       .  A
C3283      C3284   1.408       .  A
C3283      C3290   1.507       .  S
C3284      C3285   1.407       .  A
C3284      H3289   1.084       .  S
C3285      C3286   1.420       .  A
C3286      C3287   1.510       .  S
C3287      H3291   1.111       .  S
C3287      H3292   1.109       .  S
C3287      H3293   1.110       .  S
C3290      H3294   1.110       .  S
C3290      H3295   1.108       .  S
C3290      H3296   1.111       .  S
C3297      C3298   1.403       .  A
C3297      C3302   1.400       .  A
C3297      H3304   1.083       .  S
C3298      C3299   1.419       .  A
C3299      C3300   1.410       .  A
C3299      C3306   1.506       .  S
C3300      C3301   1.407       .  A
C3300      H3305   1.084       .  S
C3301      C3302   1.421       .  A
C3302      C3303   1.511       .  S
C3303      H3307   1.111       .  S
C3303      H3308   1.110       .  S
C3303      H3309   1.110       .  S
C3306      H3310   1.108       .  S
C3306      H3311   1.110       .  S
C3306      H3312   1.111       .  S
C3313      C3314   1.402       .  A
C3313      C3318   1.402       .  A
C3313      H3320   1.084       .  S
C3314      C3315   1.416       .  A
C3315      C3316   1.402       .  A
C3315      C3322   1.508       .  S
C3316      C3317   1.402       .  A
C3316      H3321   1.084       .  S
C3317      C3318   1.415       .  A
C3318      C3319   1.508       .  S
C3319      H3323   1.111       .  S
C3319      H3324   1.110       .  S
C3319      H3325   1.107       .  S
C3322      H3326   1.107       .  S
C3322      H3327   1.110       .  S
C3322      H3328   1.111       .  S
C3329      C3330   1.403       .  A
C3329      C3334   1.406       .  A
C3329      H3336   1.084       .  S
C3330      C3331   1.414       .  A
C3331      C3332   1.402       .  A
C3331      C3338   1.508       .  S
C3332      C3333   1.400       .  A
C3332      H3337   1.084       .  S
C3333      C3334   1.412       .  A
C3334      C3335   1.505       .  S
C3335      H3339   1.111       .  S
C3335      H3340   1.110       .  S
C3335      H3341   1.110       .  S
C3338      H3342   1.107       .  S
C3338      H3343   1.111       .  S
C3338      H3344   1.111       .  S
C3345      C3346   1.401       .  A
C3345      C3350   1.399       .  A
C3345      H3352   1.084       .  S
C3346      C3347   1.414       .  A
C3347      C3348   1.408       .  A
C3347      C3354   1.506       .  S
C3348      C3349   1.404       .  A
C3348      H3353   1.084       .  S
C3349      C3350   1.412       .  A
C3350      C3351   1.505       .  S
C3351      H3355   1.111       .  S
C3351      H3356   1.111       .  S
C3351      H3357   1.109       .  S
C3354      H3358   1.108       .  S
C3354      H3359   1.111       .  S
C3354      H3360   1.111       .  S
C3361      C3362   1.403       .  A
C3361      C3366   1.401       .  A
C3361      H3368   1.084       .  S
C3362      C3363   1.416       .  A
C3363      C3364   1.406       .  A
C3363      C3370   1.506       .  S
C3364      C3365   1.401       .  A
C3364      H3369   1.084       .  S
C3365      C3366   1.411       .  A
C3366      C3367   1.508       .  S
C3367      H3371   1.111       .  S
C3367      H3372   1.109       .  S
C3367      H3373   1.110       .  S
C3370      H3374   1.111       .  S
C3370      H3375   1.108       .  S
C3370      H3376   1.111       .  S
C3377      C3378   1.404       .  A
C3377      C3382   1.407       .  A
C3377      H3384   1.084       .  S
C3378      C3379   1.416       .  A
C3379      C3380   1.401       .  A
C3379      C3386   1.509       .  S
C3380      C3381   1.403       .  A
C3380      H3385   1.084       .  S
C3381      C3382   1.416       .  A
C3382      C3383   1.507       .  S
C3383      H3387   1.111       .  S
C3383      H3388   1.110       .  S
C3383      H3389   1.110       .  S
C3386      H3390   1.110       .  S
C3386      H3391   1.106       .  S
C3386      H3392   1.111       .  S
C3393      C3394   1.402       .  A
C3393      C3398   1.404       .  A
C3393      H3400   1.084       .  S
C3394      C3395   1.413       .  A
C3395      C3396   1.403       .  A
C3395      C3402   1.507       .  S
C3396      C3397   1.403       .  A
C3396      H3401   1.084       .  S
C3397      C3398   1.414       .  A
C3398      C3399   1.507       .  S
C3399      H3403   1.111       .  S
C3399      H3404   1.111       .  S
C3399      H3405   1.108       .  S
C3402      H3406   1.108       .  S
C3402      H3407   1.111       .  S
C3402      H3408   1.111       .  S
