geometry optimzed in LAMMPS
_audit_creation_date              2020-11-30 
_audit_creation_method            'lammps2cif' 
_symmetry_space_group_name_H-M    'P1' 
_symmetry_Int_Tables_number       1 
_symmetry_cell_setting            triclinic 
loop_ 
_symmetry_equiv_pos_as_xyz 
  x,y,z 
_cell_length_a                    40.60743338029401 
_cell_length_b                    34.520337161644626 
_cell_length_c                    53.76471102248507 
_cell_angle_alpha                 90.24482765678219 
_cell_angle_beta                  89.25704057770413 
_cell_angle_gamma                 89.95178426496136 
loop_ 
_atom_site_label 
_atom_site_type_symbol 
_atom_site_fract_x 
_atom_site_fract_y 
_atom_site_fract_z 
_atom_site_charge 
O1          O  0.42798630  0.18915612  0.79964394    -0.74690
O2          O  0.45498372  0.14051871  0.77883451    -0.53600
C3          C  0.43225394  0.15327079  0.79398276     0.79030
O4          O  0.43318424  0.31799275  0.70492246    -0.59300
O5          O  0.45891433  0.36589788  0.72680722    -0.52330
C6          C  0.43827169  0.35355673  0.71044246     0.71050
O7          O  0.42403098  0.19292963  0.71131487    -0.73850
O8          O  0.45495429  0.14318445  0.72654952    -0.54420
C9          C  0.43036968  0.15696010  0.71418377     0.77050
O10         O  0.43067889  0.31632817  0.80297731    -0.59000
O11         O  0.45567484  0.36509522  0.78116264    -0.52120
C12         C  0.43423773  0.35212842  0.79715910     0.73640
Zr13       Zr  0.45016051  0.25286268  0.79091432     2.54710
O14         O  0.39026754  0.25438170  0.79105877    -0.79560
O15         O  0.45590391  0.25063688  0.83593811    -0.92980
Zr16       Zr  0.44961116  0.25435334  0.71789427     2.64680
O17         O  0.38974827  0.25772695  0.71564935    -0.97940
O18         O  0.45658460  0.24988941  0.67288444    -0.80000
O19         O  0.44956288  0.21589578  0.75405454    -0.83350
O20         O  0.44903180  0.29168623  0.75474586    -2.18060
O21         O  0.06344088  0.31635055  0.80197912    -0.66740
O22         O  0.03756055  0.36496962  0.78102745    -0.51310
C23         C  0.05899834  0.35221527  0.79665835     0.72030
O24         O  0.07356990  0.19366076  0.71444346    -0.59650
O25         O  0.03825873  0.14457169  0.72477233    -0.51630
C26         C  0.06507513  0.15800616  0.71465015     0.73830
O27         O  0.06229744  0.31792937  0.70426375    -0.71050
O28         O  0.03555135  0.36576400  0.72611256    -0.49720
C29         C  0.05685670  0.35357822  0.70974346     0.75210
O30         O  0.06473637  0.18803335  0.79869880    -0.66380
O31         O  0.03721971  0.13970028  0.77849608    -0.53570
C32         C  0.05971006  0.15215515  0.79343904     0.73590
Zr33       Zr  0.04548454  0.25265264  0.78901669     2.77540
O34         O  0.10489334  0.25312486  0.78188717    -0.97130
O35         O  0.04786497  0.24982847  0.83422399    -0.77950
Zr36       Zr  0.04395965  0.25391445  0.71624557     2.70070
O37         O  0.10192268  0.25947930  0.70469700    -0.79190
O38         O  0.03216591  0.24390202  0.67239214    -0.98280
Zr39       Zr  0.99676484  0.17495705  0.75294862     2.21500
Zr40       Zr  0.49714345  0.33162538  0.75442369     2.11130
O41         O  0.04539730  0.29170880  0.75298134    -2.46960
O42         O  0.04451473  0.21528116  0.75238599    -0.78990
O43         O  0.49781253  0.29233184  0.79120527    -0.71180
O44         O  0.99663419  0.21365443  0.71573654    -2.32140
O45         O  0.99767403  0.21316447  0.79044162    -2.28350
O46         O  0.49688873  0.29405339  0.71686001    -0.72940
H47         H  0.42927897  0.30728104  0.75489901     0.79050
H48         H  0.99642026  0.19733686  0.70109691     0.80140
H49         H  0.06501415  0.30748586  0.75264006     0.82370
H50         H  0.99779588  0.19673051  0.80494317     0.79970
H51         H  0.45848662  0.22185878  0.66920562     0.43010
H52         H  0.03227391  0.27025659  0.66519628     0.41980
H53         H  0.11309233  0.26578544  0.72046836     0.41660
H54         H  0.10846135  0.23606229  0.76724752     0.39590
H55         H  0.03845707  0.27476240  0.84009340     0.42720
H56         H  0.47987700  0.24841886  0.83864072     0.37510
H57         H  0.38426364  0.24767331  0.77377841     0.43620
H58         H  0.38327457  0.28010086  0.72621634     0.40040
H59         H  0.11024966  0.27941517  0.77578722     0.44960
H60         H  0.44695579  0.22512311  0.84093375     0.43680
H61         H  0.38512776  0.26602483  0.69843214     0.43820
H62         H  0.05229682  0.23146265  0.66549203     0.44170
C63         C  0.37017405  0.11952433  0.84191235     0.03730
C64         C  0.39892929  0.13502402  0.83120604    -0.12420
C65         C  0.40813776  0.12658871  0.80630453     0.01230
C66         C  0.38812611  0.10100876  0.79241989    -0.10950
C67         C  0.35883728  0.08564588  0.80313607     0.03720
C68         C  0.35092543  0.09428943  0.82800983    -0.10370
H69         H  0.41247574  0.15662433  0.84159257     0.09310
H70         H  0.39345280  0.09628915  0.77287385     0.06840
H71         H  0.32799033  0.08386528  0.83609495     0.06690
O72         O  0.30621278  0.07345942  0.69681873    -0.74690
O73         O  0.34287514  0.03952648  0.72016836    -0.53600
C74         C  0.33575951  0.06498605  0.70376942     0.79030
O75         O  0.18990896  0.07374584  0.79412283    -0.59300
O76         O  0.15106344  0.04264061  0.77125972    -0.52330
C77         C  0.15971991  0.06652357  0.78831177     0.71050
O78         O  0.30302282  0.07375980  0.79367009    -0.73850
O79         O  0.34239682  0.04020374  0.77198229    -0.54420
C80         C  0.33335254  0.06533775  0.78838342     0.77050
O81         O  0.19304076  0.07716749  0.69597467    -0.59000
O82         O  0.15441588  0.04505058  0.71930430    -0.52120
C83         C  0.16302220  0.07038353  0.70305450     0.73640
Zr84       Zr  0.24880963  0.05503864  0.70738252     2.54710
O85         O  0.25034778  0.12543436  0.70560641    -0.79560
O86         O  0.24968434  0.04913452  0.66222261    -0.92980
Zr87       Zr  0.24663095  0.05670365  0.78180392     2.64680
O88         O  0.24712183  0.12719482  0.78054705    -0.97940
O89         O  0.24589775  0.05842784  0.82708952    -0.80000
O90         O  0.27929181  0.05627345  0.74490524    -0.83350
O91         O  0.21627501  0.05746682  0.74451695    -2.18060
O92         O  0.18972934  0.42253423  0.69579758    -0.66740
O93         O  0.15254799  0.45682467  0.71938519    -0.51310
C94         C  0.16000128  0.43144785  0.70278762     0.72030
O95         O  0.30066391  0.42252117  0.79487384    -0.59650
O96         O  0.34057000  0.45506850  0.77335691    -0.51630
C97         C  0.33107449  0.43046577  0.78983069     0.73830
O98         O  0.18878645  0.42634849  0.79421182    -0.71050
O99         O  0.15032730  0.45889260  0.77198719    -0.49720
C100        C  0.15876176  0.43476408  0.78889758     0.75210
O101        O  0.30330210  0.41826588  0.69799367    -0.66380
O102        O  0.34033555  0.45115397  0.72180379    -0.53570
C103        C  0.33281571  0.42570133  0.70545825     0.73590
Zr104      Zr  0.24667429  0.44029511  0.70792137     2.77540
O105        O  0.24529755  0.36978724  0.70698818    -0.97130
O106        O  0.24927399  0.44460030  0.66275497    -0.77950
Zr107      Zr  0.24533400  0.44163068  0.78209883     2.70070
O108        O  0.24371163  0.37117530  0.78078807    -0.79190
O109        O  0.24487727  0.44140186  0.82740408    -0.98280
Zr110      Zr  0.30986296  0.49741993  0.74605105     2.21500
Zr111      Zr  0.18381419  0.49988620  0.74507910     2.11130
O112        O  0.21434225  0.44076557  0.74505466    -2.46960
O113        O  0.27772834  0.43970097  0.74523439    -0.78990
O114        O  0.21528479  0.99850096  0.70719542    -0.71180
O115        O  0.27769582  0.49864205  0.78331070    -2.32140
O116        O  0.28016908  0.49690701  0.70781506    -2.28350
O117        O  0.21402918  0.49973611  0.78274122    -0.72940
H118        H  0.20251605  0.08029533  0.74450197     0.79050
H119        H  0.29142526  0.49858765  0.79784758     0.80140
H120        H  0.19983125  0.41861086  0.74522355     0.82370
H121        H  0.29516093  0.49620371  0.69372042     0.79970
H122        H  0.25805127  0.03488840  0.83207252     0.43010
H123        H  0.22812108  0.46099263  0.83221059     0.41980
H124        H  0.25393141  0.36429096  0.76454200     0.41660
H125        H  0.22624194  0.36269753  0.71770035     0.39590
H126        H  0.23196571  0.46359020  0.65851019     0.42720
H127        H  0.27067071  0.03576194  0.65817727     0.37510
H128        H  0.25426030  0.13362104  0.72299045     0.43620
H129        H  0.22692879  0.13432358  0.77150748     0.40040
H130        H  0.23833235  0.36318316  0.68990620     0.44960
H131        H  0.25301008  0.07595075  0.65623548     0.43680
H132        H  0.24262771  0.13528047  0.79795605     0.43820
H133        H  0.23483682  0.41627917  0.83205235     0.44170
C134        C  0.11893413  0.38731428  0.84530992     0.03730
C135        C  0.09019735  0.37205628  0.83416552    -0.12420
C136        C  0.08228733  0.37905128  0.80901494     0.01230
C137        C  0.10294747  0.40292751  0.79455837    -0.10950
C138        C  0.13291659  0.41579846  0.80434363     0.03720
C139        C  0.14070739  0.40674629  0.82897060    -0.10370
H140        H  0.07494574  0.35138723  0.84361295     0.09310
H141        H  0.09789656  0.40717804  0.77501462     0.06840
H142        H  0.16543934  0.41298819  0.83444710     0.06690
C143        C  0.37015896  0.37979819  0.84432912     0.03730
C144        C  0.40139637  0.37044529  0.83446070    -0.12420
C145        C  0.40959845  0.37803902  0.80936000     0.01230
C146        C  0.38744237  0.39970316  0.79491649    -0.10950
C147        C  0.35637410  0.41056585  0.80487821     0.03720
C148        C  0.34797433  0.39972478  0.82929577    -0.10370
H149        H  0.41832712  0.35385126  0.84563144     0.09310
H150        H  0.39291654  0.40470022  0.77541901     0.06840
H151        H  0.32353349  0.40609072  0.83656317     0.06690
C152        C  0.11922057  0.11983995  0.84172102     0.03730
C153        C  0.14043801  0.09635592  0.82769557    -0.12420
C154        C  0.13365744  0.08689437  0.80291205     0.01230
C155        C  0.10435435  0.10090325  0.79206321    -0.10950
C156        C  0.08271733  0.12507598  0.80594025     0.03720
C157        C  0.08985906  0.13283140  0.83108292    -0.10370
H158        H  0.16359304  0.08747419  0.83573955     0.09310
H159        H  0.10016883  0.09630303  0.77242551     0.06840
H160        H  0.07440184  0.15282793  0.84158740     0.06690
C161        C  0.10458650  0.11639342  0.65714295     0.03730
C162        C  0.08372314  0.13673350  0.67352245    -0.12420
C163        C  0.08662715  0.13316691  0.69923407     0.01230
C164        C  0.11312063  0.11208057  0.70882877    -0.10950
C165        C  0.13613841  0.09393330  0.69257756     0.03720
C166        C  0.13162791  0.09604212  0.66666433    -0.10370
H167        H  0.06319720  0.15299097  0.66609781     0.09310
H168        H  0.11637246  0.11066090  0.72876596     0.06840
H169        H  0.14751047  0.07959011  0.65418026     0.06690
C170        C  0.09544082  0.40613345  0.65536036     0.03730
C171        C  0.07173516  0.38780815  0.67060177    -0.12420
C172        C  0.07773388  0.38124476  0.69589319     0.01230
C173        C  0.10734773  0.39437246  0.70617925    -0.10950
C174        C  0.13160441  0.41212785  0.69112438     0.03720
C175        C  0.12599292  0.41651984  0.66562734    -0.10370
H176        H  0.04857906  0.37845365  0.66278606     0.09310
H177        H  0.11194658  0.38982421  0.72577154     0.06840
H178        H  0.14452739  0.43053694  0.65411943     0.06690
C179        C  0.39041353  0.11774310  0.65697388     0.03730
C180        C  0.40809244  0.14049629  0.67369203    -0.12420
C181        C  0.40923762  0.13177444  0.69901669     0.01230
C182        C  0.38645040  0.10531838  0.70886940    -0.10950
C183        C  0.36356272  0.08724446  0.69298373     0.03720
C184        C  0.36694997  0.09175101  0.66699625    -0.10370
H185        H  0.42250211  0.16458796  0.66673631     0.09310
H186        H  0.38476697  0.10122935  0.72878835     0.06840
H187        H  0.35166469  0.07456152  0.65489549     0.06690
C188        C  0.39521483  0.39854607  0.65656510     0.03730
C189        C  0.42114173  0.38478499  0.67125532    -0.12420
C190        C  0.41688490  0.38048481  0.69706230     0.01230
C191        C  0.38719711  0.39243543  0.70831158    -0.10950
C192        C  0.36101103  0.40571519  0.69373870     0.03720
C193        C  0.36451158  0.40625523  0.66788435    -0.10370
H194        H  0.44450265  0.37693026  0.66266533     0.09310
H195        H  0.38394804  0.38997534  0.72828757     0.06840
H196        H  0.34430937  0.41666177  0.65673313     0.06690
O197        O  0.31153008  0.32825388  0.95504349    -0.74690
O198        O  0.28370665  0.29413218  0.92552704    -0.53600
C199        C  0.30596516  0.31843755  0.93241823     0.79030
O200        O  0.30381746  0.17177682  0.03638155    -0.59300
O201        O  0.27476879  0.20978635  0.06314902    -0.52330
C202        C  0.29544817  0.18270769  0.05868985     0.71050
O203        O  0.30884925  0.17771517  0.95050585    -0.73850
O204        O  0.27722942  0.21038872  0.92308419    -0.54420
C205        C  0.30041037  0.18646510  0.92806033     0.77050
O206        O  0.30709369  0.32660236  0.03769855    -0.59000
O207        O  0.27646494  0.29064274  0.06491890    -0.52120
C208        C  0.29911267  0.31570381  0.05982108     0.73640
Zr209      Zr  0.28981678  0.30983229  0.99565058     2.54710
O210        O  0.34969688  0.31010038  0.99700063    -0.79560
O211        O  0.28563519  0.38015568  0.99694836    -0.92980
Zr212      Zr  0.29034976  0.19348767  0.99351406     2.64680
O213        O  0.35021531  0.19695014  0.99369383    -0.97940
O214        O  0.28951826  0.12300983  0.99229928    -0.80000
O215        O  0.29128385  0.25264437  0.97087156    -0.83350
O216        O  0.28990109  0.25085276  0.01805832    -2.18060
O217        O  0.17372624  0.32797322  0.03710322    -0.66740
O218        O  0.20349801  0.29264200  0.06470925    -0.51310
C219        C  0.18188789  0.31838117  0.05933443     0.72030
O220        O  0.17545867  0.17883089  0.94946246    -0.59650
O221        O  0.20712651  0.21317394  0.92206969    -0.51630
C222        C  0.18419052  0.18866435  0.92721033     0.73830
O223        O  0.17246863  0.17327371  0.03333701    -0.71050
O224        O  0.20276900  0.20611222  0.06205483    -0.49720
C225        C  0.18064135  0.18131311  0.05583241     0.75210
O226        O  0.17276242  0.32595578  0.95337435    -0.66380
O227        O  0.20656225  0.29762626  0.92425520    -0.53570
C228        C  0.18217682  0.31946893  0.93082863     0.73590
Zr229      Zr  0.19140201  0.30959655  0.99478930     2.77540
O230        O  0.13141231  0.30942858  0.99500154    -0.97130
O231        O  0.19423168  0.37999063  0.99405275    -0.77950
Zr232      Zr  0.19188687  0.19390274  0.99216703     2.70070
O233        O  0.13199170  0.19239865  0.99149834    -0.79190
O234        O  0.19696286  0.12367740  0.99063965    -0.98280
Zr235      Zr  0.24262937  0.25403312  0.94678851     2.21500
Zr236      Zr  0.23915201  0.25081380  0.04050510     2.11130
O237        O  0.18991162  0.25080908  0.01720412    -2.46960
O238        O  0.19214585  0.25284008  0.96964943    -0.78990
O239        O  0.23982360  0.31048667  0.01905661    -0.71180
O240        O  0.24197991  0.19422164  0.96894322    -2.32140
O241        O  0.24145118  0.31179161  0.97113942    -2.28350
O242        O  0.24010695  0.19256500  0.01673487    -0.72940
H243        H  0.30847489  0.25039204  0.02909183     0.79050
H244        H  0.24222261  0.17240422  0.95763304     0.80140
H245        H  0.17068866  0.25035288  0.02797045     0.82370
H246        H  0.24177080  0.33436507  0.96058051     0.79970
H247        H  0.27117496  0.11645901  0.98108812     0.43010
H248        H  0.21031177  0.11704377  0.00530636     0.41980
H249        H  0.12561230  0.21871112  0.98609595     0.41660
H250        H  0.12505877  0.28976678  0.00751738     0.39590
H251        H  0.21015263  0.38669325  0.00718163     0.42720
H252        H  0.27085038  0.38690210  0.98313187     0.37510
H253        H  0.35621419  0.28396810  0.99106990     0.43620
H254        H  0.35579281  0.20565826  0.01069239     0.40040
H255        H  0.12497495  0.33450914  0.00263745     0.44960
H256        H  0.30762392  0.38937573  0.99145336     0.43680
H257        H  0.35751831  0.16960467  0.99284853     0.43820
H258        H  0.17460164  0.11406378  0.99479419     0.44170
C259        C  0.12956112  0.37910834  0.15241511     0.03730
C260        C  0.14031568  0.41326358  0.16418914    -0.12420
C261        C  0.13423213  0.41973910  0.18974054     0.01230
C262        C  0.11361967  0.39430262  0.20280700    -0.10950
C263        C  0.10146741  0.36123721  0.19087102     0.03720
C264        C  0.11011315  0.35318250  0.16613991    -0.10370
H265        H  0.15600036  0.43327760  0.15406139     0.09310
H266        H  0.10842813  0.39904078  0.22241449     0.06840
H267        H  0.10179019  0.32640427  0.15771515     0.06690
C268        C  0.35944256  0.13522370  0.15019950     0.03730
C269        C  0.37985697  0.16296905  0.16124579    -0.12420
C270        C  0.38521907  0.16229553  0.18699706     0.01230
C271        C  0.37039033  0.13337787  0.20168500    -0.10950
C272        C  0.35053509  0.10510004  0.19058128     0.03720
C273        C  0.34614331  0.10549749  0.16478248    -0.10370
H274        H  0.38982804  0.18642441  0.15012704     0.09310
H275        H  0.37341693  0.13367278  0.22167675     0.06840
H276        H  0.32871910  0.08560008  0.15648370     0.06690
C277        C  0.35505587  0.37725563  0.15092083     0.03730
C278        C  0.33918637  0.40770824  0.16357139    -0.12420
C279        C  0.34711980  0.41704032  0.18840035     0.01230
C280        C  0.37024141  0.39433535  0.20086859    -0.10950
C281        C  0.38587009  0.36365167  0.18828693     0.03720
C282        C  0.38010885  0.35723787  0.16307456    -0.10370
H283        H  0.31898280  0.42250755  0.15467591     0.09310
H284        H  0.37484079  0.39921669  0.22045113     0.06840
H285        H  0.39351869  0.33441990  0.15339364     0.06690
O286        O  0.18742971  0.43913930  0.19762603    -0.74690
O287        O  0.14653715  0.46836603  0.22048901    -0.53600
C288        C  0.15710685  0.44474017  0.20344598     0.79030
O289        O  0.29600096  0.43036552  0.29339080    -0.59300
O290        O  0.33632496  0.46576830  0.27396964    -0.52330
C291        C  0.32613476  0.43834167  0.28838415     0.71050
O292        O  0.18898147  0.42548128  0.29124961    -0.73850
O293        O  0.14850662  0.46280128  0.27417107    -0.54420
C294        C  0.15893376  0.43388125  0.28711118     0.77050
O295        O  0.29449721  0.43808993  0.19688090    -0.59000
O296        O  0.33550534  0.46649064  0.21921140    -0.52120
C297        C  0.32472469  0.44283952  0.20240304     0.73640
Zr298      Zr  0.24132934  0.45972838  0.20984640     2.54710
O299        O  0.24122606  0.38947127  0.20606634    -0.79560
O300        O  0.24288336  0.47465415  0.16554902    -0.92980
Zr301      Zr  0.24184419  0.45311802  0.28291498     2.64680
O302        O  0.24228371  0.38250670  0.28297419    -0.97940
O303        O  0.24002703  0.45786748  0.32813463    -0.80000
O304        O  0.20951145  0.45576589  0.24663120    -0.83350
O305        O  0.27365466  0.45532085  0.24597485    -2.18060
O306        O  0.29662024  0.09091940  0.20151172    -0.66740
O307        O  0.33721900  0.05648807  0.22061308    -0.51310
C308        C  0.32693644  0.08259529  0.20547451     0.72030
O309        O  0.18822614  0.09245572  0.29590571    -0.59650
O310        O  0.14760235  0.06073404  0.27497424    -0.51630
C311        C  0.15818532  0.08731849  0.28989752     0.73830
O312        O  0.29406998  0.09066968  0.29658457    -0.71050
O313        O  0.33481787  0.06094686  0.27371074    -0.49720
C314        C  0.32404048  0.08646334  0.28953875     0.75210
O315        O  0.18752972  0.09056353  0.20124327    -0.66240
O316        O  0.14656713  0.05740284  0.22158507    -0.53570
C317        C  0.15715116  0.08285159  0.20584200     0.73590
Zr318      Zr  0.24175613  0.07109940  0.21398086     2.77540
O319        O  0.23964645  0.14133785  0.21840158    -0.97130
O320        O  0.24460687  0.06630573  0.16883916    -0.77950
Zr321      Zr  0.24115083  0.06409162  0.28731576     2.70070
O322        O  0.24174364  0.13188397  0.29991128    -0.79190
O323        O  0.23956881  0.04483835  0.33082571    -0.98280
Zr324      Zr  0.17589906  0.01226517  0.24870024     2.21500
Zr325      Zr  0.30712136  0.01207511  0.24788581     2.11130
O326        O  0.27322854  0.06866774  0.25030666    -2.46960
O327        O  0.20951744  0.06864161  0.25082513    -0.78990
O328        O  0.27500669  0.01520988  0.21117993    -0.71180
O329        O  0.20738357  0.00853256  0.28609835    -2.32140
O330        O  0.20828146  0.01547579  0.21147708    -2.28350
O331        O  0.27552917  0.00880352  0.28576857    -0.72940
H332        H  0.28700989  0.43219376  0.24502146     0.79050
H333        H  0.19320968  0.00734910  0.30065138     0.80140
H334        H  0.28621938  0.09205983  0.25043570     0.82370
H335        H  0.19468499  0.01636833  0.19688253     0.79970
H336        H  0.21632226  0.45713883  0.33265551     0.43010
H337        H  0.26204499  0.05014203  0.33689227     0.41980
H338        H  0.24269041  0.14636993  0.28405886     0.41660
H339        H  0.26269813  0.14950860  0.22106830     0.39590
H340        H  0.26546561  0.05247822  0.16508459     0.42720
H341        H  0.22020239  0.47027098  0.15963481     0.37510
H342        H  0.23546148  0.38022766  0.22297604     0.43620
H343        H  0.26035595  0.37498719  0.27138780     0.40040
H344        H  0.23422605  0.15105523  0.20166866     0.44960
H345        H  0.25615573  0.45375355  0.15771279     0.43680
H346        H  0.25021376  0.37523154  0.29965949     0.43820
H347        H  0.22555802  0.06463150  0.33913711     0.44170
O348        O  0.04703827  0.34554914  0.19823365    -0.74690
O349        O  0.08660424  0.30868919  0.21668001    -0.53600
C350        C  0.07698290  0.33694991  0.20302542     0.79030
O351        O  0.43498160  0.33305715  0.29329546    -0.59300
O352        O  0.39520352  0.30650287  0.26893666    -0.52330
C353        C  0.40498284  0.32860272  0.28687715     0.71050
O354        O  0.04136312  0.33772272  0.29334088    -0.73850
O355        O  0.08273000  0.30989004  0.27027503    -0.54420
C356        C  0.07163034  0.33337267  0.28727494     0.77050
O357        O  0.43962999  0.34638580  0.19579909    -0.59000
O358        O  0.39877615  0.31087144  0.21461210    -0.52120
C359        C  0.40943652  0.33875447  0.20067717     0.73640
Zr360      Zr  0.99251243  0.32028717  0.20586631     2.54710
O361        O  0.99287292  0.39044397  0.20165974    -0.79560
O362        O  0.49440419  0.31083466  0.16095429    -0.92980
Zr363      Zr  0.98923616  0.31677330  0.27880707     2.64680
O364        O  0.98876520  0.38659318  0.27200213    -0.97940
O365        O  0.48884066  0.31776184  0.32409059    -0.80000
O366        O  0.02308966  0.31977027  0.24292713    -0.83350
O367        O  0.45866590  0.31951124  0.24212498    -2.18060
O368        O  0.43866027  0.18457860  0.19159934    -0.66740
O369        O  0.39790435  0.21505903  0.21406784    -0.51310
C370        C  0.40848201  0.18962400  0.19813579     0.72030
O371        O  0.04499746  0.18419508  0.28821783    -0.59650
O372        O  0.08583617  0.21906483  0.26908576    -0.51630
C373        C  0.07532478  0.19276156  0.28409268     0.73830
O374        O  0.43572043  0.18627512  0.28919576    -0.71050
O375        O  0.39547167  0.21816201  0.26806590    -0.49720
C376        C  0.40555154  0.19353587  0.28428086     0.75210
O377        O  0.04703543  0.18481740  0.19322514    -0.66380
O378        O  0.08605801  0.21604345  0.21619840    -0.53570
C379        C  0.07675012  0.19057272  0.20010142     0.73590
Zr380      Zr  0.49242217  0.20837224  0.20302128     2.77540
O381        O  0.49438350  0.13818273  0.19811341    -0.97130
O382        O  0.49419568  0.21987016  0.15837197    -0.77950
Zr383      Zr  0.49048864  0.20421867  0.27630311     2.70070
O384        O  0.48931965  0.13387944  0.27309043    -0.79190
O385        O  0.49112700  0.20355571  0.32159439    -0.98280
Zr386      Zr  0.05609578  0.26296905  0.24222390     2.21500
Zr387      Zr  0.42578603  0.26242051  0.24072956     2.11130
O388        O  0.45935872  0.20535718  0.23956589    -2.46960
O389        O  0.02352188  0.20568575  0.23996320    -0.78990
O390        O  0.45873366  0.26443756  0.20342817    -0.71180
O391        O  0.02262285  0.26082827  0.27894636    -2.32140
O392        O  0.02598380  0.26436837  0.20422547    -2.28350
O393        O  0.45693303  0.26016215  0.27804381    -0.72940
H394        H  0.44515350  0.34251953  0.24290846     0.79050
H395        H  0.03585416  0.26036080  0.29374567     0.80140
H396        H  0.44601492  0.18222396  0.23932010     0.82370
H397        H  0.04067450  0.26505351  0.18995365     0.79970
H398        H  0.99934298  0.29304128  0.32886759     0.43010
H399        H  0.47243737  0.22030792  0.32678010     0.41980
H400        H  0.00048748  0.12808460  0.25702153     0.41660
H401        H  0.47680674  0.12816303  0.20927918     0.39590
H402        H  0.47162489  0.22837914  0.15426275     0.42720
H403        H  0.01813917  0.31102786  0.15650514     0.37510
H404        H  0.99173586  0.40027413  0.21897526     0.43620
H405        H  0.46594206  0.39512485  0.27570624     0.40040
H406        H  0.48636737  0.13312417  0.18108879     0.44960
H407        H  0.98579733  0.33536184  0.15410216     0.43680
H408        H  0.00217127  0.39785163  0.28546161     0.43820
H409        H  0.48412279  0.17702557  0.32616956     0.44170
C410        C  0.12710699  0.13803211  0.15117721     0.03730
C411        C  0.13852163  0.10674667  0.16536106    -0.12420
C412        C  0.13399596  0.10593205  0.19128602     0.01230
C413        C  0.11464968  0.13445244  0.20290365    -0.10950
C414        C  0.10111582  0.16444762  0.18878289     0.03720
C415        C  0.10782707  0.16657208  0.16313092    -0.10370
H416        H  0.15369703  0.08462718  0.15655439     0.09310
H417        H  0.11080751  0.13389463  0.22286981     0.06840
H418        H  0.09856223  0.19096291  0.15270791     0.06690
C419        C  0.10919575  0.14155754  0.33881001     0.03730
C420        C  0.09423332  0.17000884  0.32447557    -0.12420
C421        C  0.09878260  0.17052730  0.29859817     0.01230
C422        C  0.11928850  0.14297866  0.28700474    -0.10950
C423        C  0.13508529  0.11490271  0.30136944     0.03720
C424        C  0.13078172  0.11503278  0.32730012    -0.10370
H425        H  0.07585888  0.18877706  0.33307242     0.09310
H426        H  0.12202843  0.14254397  0.26694419     0.06840
H427        H  0.14178247  0.09223319  0.33825688     0.06690
C428        C  0.37160338  0.13889831  0.33845416     0.03730
C429        C  0.35034921  0.11303137  0.32668962    -0.12420
C430        C  0.34663676  0.11397967  0.30090252     0.01230
C431        C  0.36193928  0.14323335  0.28690089    -0.10950
C432        C  0.38193063  0.17062512  0.29878774     0.03720
C433        C  0.38654068  0.16834060  0.32462087    -0.10370
H434        H  0.33923413  0.08968614  0.33731438     0.09310
H435        H  0.35937493  0.14371196  0.26687189     0.06840
H436        H  0.40469606  0.18668703  0.33344464     0.06690
C437        C  0.10531824  0.39685294  0.33855083     0.03730
C438        C  0.08676187  0.36884960  0.32582418    -0.12420
C439        C  0.09402274  0.35915263  0.30076278     0.01230
C440        C  0.11775640  0.38057731  0.28769106    -0.10950
C441        C  0.13525237  0.40948535  0.30005559     0.03720
C442        C  0.13135680  0.41460689  0.32568107    -0.10370
H443        H  0.06573273  0.35566105  0.33502210     0.09310
H444        H  0.12163723  0.37593120  0.26791549     0.06840
H445        H  0.14733510  0.43476291  0.33522571     0.06690
C446        C  0.37723936  0.39386053  0.33841613     0.03730
C447        C  0.35774596  0.42019082  0.32540966    -0.12420
C448        C  0.34995527  0.41326376  0.30047951     0.01230
C449        C  0.36199084  0.38006294  0.28818082    -0.10950
C450        C  0.38184852  0.35366682  0.30088499     0.03720
C451        C  0.38783264  0.35983058  0.32634540    -0.10370
H452        H  0.34929030  0.44657113  0.33446240     0.09310
H453        H  0.35731670  0.37594368  0.26853840     0.06840
H454        H  0.40404792  0.34022409  0.33607469     0.06690
O455        O  0.05668247  0.44671258  0.53815684    -0.74690
O456        O  0.02410245  0.48142658  0.56503108    -0.53600
C457        C  0.04750383  0.45730524  0.56017576     0.79030
O458        O  0.05556257  0.09731561  0.45211175    -0.59300
O459        O  0.02088135  0.06583328  0.42646554    -0.52330
C460        C  0.04466598  0.08905263  0.43016636     0.71050
O461        O  0.05487650  0.09702173  0.53899737    -0.73850
O462        O  0.02445998  0.05712133  0.56298952    -0.54420
C463        C  0.04598146  0.08342744  0.56051722     0.77050
O464        O  0.05988736  0.44430420  0.45429763    -0.59000
O465        O  0.03143720  0.48060598  0.42648341    -0.52120
C466        C  0.05347219  0.45540799  0.43209354     0.73640
Zr467      Zr  0.04029356  0.46284879  0.49571602     2.54710
O468        O  0.10016242  0.46551849  0.49642780    -0.79560
O469        O  0.04010357  0.39234249  0.49554826    -0.92980
Zr470      Zr  0.03875800  0.08019668  0.49543364     2.64680
O471        O  0.09869916  0.08207267  0.49560663    -0.97940
O472        O  0.03517339  0.15062212  0.49569550    -0.80000
O473        O  0.03872407  0.02163204  0.51864080    -0.83350
O474        O  0.04093407  0.02114987  0.47228155    -2.18060
O475        O  0.42543246  0.44119582  0.45214724    -0.66740
O476        O  0.45726714  0.47617431  0.42528541    -0.51310
C477        C  0.43497792  0.45080664  0.43004471     0.72030
O478        O  0.42113444  0.09917766  0.53497153    -0.59650
O479        O  0.45184446  0.06452448  0.56228410    -0.51630
C480        C  0.43034792  0.09057191  0.55707177     0.73830
O481        O  0.42136182  0.09066805  0.45082065    -0.71050
O482        O  0.45653567  0.05907386  0.42477333    -0.49720
C483        C  0.43180990  0.08139158  0.42881982     0.75210
O484        O  0.42525077  0.44003442  0.53704549    -0.66380
O485        O  0.45252652  0.47901516  0.56425890    -0.53570
C486        C  0.43231812  0.45177370  0.55915073     0.73590
Zr487      Zr  0.44079596  0.46001764  0.49459798     2.77540
O488        O  0.38093003  0.46186013  0.49676499    -0.97130
O489        O  0.44143623  0.38956715  0.49336487    -0.77950
Zr490      Zr  0.43911519  0.07739144  0.49359078     2.70070
O491        O  0.37921965  0.08005046  0.49441449    -0.79190
O492        O  0.44402543  0.14758407  0.49119225    -0.98280
Zr493      Zr  0.48741608  0.01990621  0.53988680     2.21500
Zr494      Zr  0.49121770  0.01882974  0.44952297     2.11130
O495        O  0.44002182  0.01804574  0.47105583    -2.46960
O496        O  0.43783798  0.01916520  0.51738154    -0.78990
O497        O  0.49148203  0.45981561  0.47170530    -0.71180
O498        O  0.48780766  0.07939462  0.51786762    -2.32140
O499        O  0.48971152  0.46024832  0.51830155    -2.28350
O500        O  0.48988881  0.07875184  0.47123675    -0.72940
H501        H  0.05998454  0.02159207  0.46134585     0.79050
H502        H  0.48718796  0.10131122  0.52908803     0.80140
H503        H  0.42176255  0.01722648  0.45973974     0.82370
H504        H  0.48992015  0.43860588  0.52962548     0.79970
H505        H  0.01530852  0.15657715  0.50587712     0.43010
H506        H  0.45122760  0.15279321  0.47386273     0.41980
H507        H  0.37245066  0.05661532  0.50371549     0.41660
H508        H  0.37465282  0.48250250  0.48501091     0.39590
H509        H  0.46315011  0.38292106  0.48591322     0.42720
H510        H  0.02338026  0.38510697  0.50825177     0.37510
H511        H  0.10514848  0.99191510  0.50258855     0.43620
H512        H  0.10564657  0.06542012  0.48144321     0.40040
H513        H  0.37386690  0.43745249  0.48871789     0.44960
H514        H  0.06140692  0.38499523  0.50294568     0.43680
H515        H  0.10433513  0.10870624  0.49028161     0.43820
H516        H  0.42105179  0.15714367  0.49214459     0.44170
C517        C  0.41962152  0.43182519  0.40804368    -0.04740
C518        C  0.43983854  0.42047785  0.38766545    -0.01860
C519        C  0.42586243  0.40866819  0.36511253     0.03130
C520        C  0.39138871  0.40505531  0.36294073    -0.04740
C521        C  0.37100268  0.41446566  0.38362037    -0.01850
C522        C  0.38498809  0.42859485  0.40590514     0.03130
C523        C  0.47539900  0.42187697  0.38930331     0.37780
C524        C  0.33558820  0.41013483  0.38185252     0.37770
C525        C  0.36349455  0.44212801  0.42584535     0.36190
C526        C  0.44727937  0.40306716  0.34360139     0.36190
N527        N  0.34596815  0.45316219  0.44147231    -0.38630
N528        N  0.46475658  0.39916009  0.32664249    -0.38630
N529        N  0.30732781  0.40669830  0.38041469    -0.38070
N530        N  0.00380925  0.42295630  0.38972083    -0.38080
C531        C  0.07281121  0.43878131  0.41104366    -0.04740
C532        C  0.07340085  0.39860810  0.40618884    -0.01860
C533        C  0.08632402  0.38453447  0.38329382     0.03130
C534        C  0.09559922  0.41084035  0.36416271    -0.04740
C535        C  0.09532472  0.45120678  0.36971346    -0.01850
C536        C  0.08725343  0.46416618  0.39378321     0.03130
C537        C  0.05949099  0.37196168  0.42424762     0.37780
C538        C  0.10101658  0.48018201  0.35063117     0.37770
C539        C  0.09641010  0.00286483  0.40159368     0.36190
C540        C  0.09004518  0.34310418  0.37969516     0.36190
N541        N  0.10523720  0.03300480  0.40818821    -0.38630
N542        N  0.09298139  0.31000427  0.37693577    -0.38630
N543        N  0.10556718  0.50328500  0.33543265    -0.38070
N544        N  0.04820850  0.35079461  0.43864571    -0.38080
C545        C  0.38679542  0.12636199  0.36193534    -0.04740
C546        C  0.40836625  0.09459190  0.36080630    -0.01860
C547        C  0.42014730  0.07810608  0.38268377     0.03130
C548        C  0.41469719  0.09661240  0.40615608    -0.04740
C549        C  0.39385670  0.12989184  0.40701545    -0.01850
C550        C  0.37931815  0.14396168  0.38497545     0.03130
C551        C  0.41865159  0.07869959  0.33677093     0.37780
C552        C  0.38693440  0.14990885  0.43025820     0.37770
C553        C  0.35667118  0.17645632  0.38590235     0.36190
C554        C  0.43582571  0.04050233  0.38031981     0.36190
N555        N  0.33851559  0.20231172  0.38662752    -0.38630
N556        N  0.44770735  0.01038453  0.37730058    -0.38630
N557        N  0.38107061  0.16610546  0.44868453    -0.38070
N558        N  0.42692741  0.06639613  0.31762929    -0.38080
C559        C  0.09274809  0.13042612  0.36244954    -0.04740
C560        C  0.09822261  0.14997754  0.38507491    -0.01860
C561        C  0.08184472  0.13780545  0.40717558     0.03130
C562        C  0.06046449  0.10517560  0.40679925    -0.04740
C563        C  0.05439826  0.08687307  0.38325712    -0.01850
C564        C  0.06956001  0.10039111  0.36144823     0.03130
C565        C  0.12031708  0.18292738  0.38543806     0.37780
C566        C  0.03425753  0.05231319  0.38066381     0.37770
C567        C  0.06082010  0.08350189  0.33750315     0.36190
C568        C  0.08654997  0.15968775  0.42991619     0.36190
N569        N  0.05384152  0.07034209  0.31845093    -0.38630
N570        N  0.09026040  0.17744506  0.44797290    -0.38630
N571        N  0.01888547  0.02443412  0.37802949    -0.38070
N572        N  0.13784325  0.20934379  0.38566981    -0.38080
C573        C  0.14177821  0.36803432  0.12689425    -0.04740
C574        C  0.12005203  0.35323460  0.10863276    -0.01860
C575        C  0.13272416  0.33733011  0.08613093     0.03130
C576        C  0.16676927  0.33924072  0.08079425    -0.04740
C577        C  0.18767171  0.35791388  0.09768560    -0.01850
C578        C  0.17588814  0.36969409  0.12116746     0.03130
C579        C  0.08472322  0.35401365  0.11294346     0.37780
C580        C  0.22144441  0.36601466  0.09062201     0.37770
C581        C  0.19972816  0.38019836  0.13985956     0.36190
C582        C  0.11100300  0.31748310  0.06910874     0.36190
N583        N  0.21922271  0.38795791  0.15454379    -0.38630
N584        N  0.09361794  0.30136322  0.05568573    -0.38630
N585        N  0.24812479  0.37372570  0.08489761    -0.38070
N586        N  0.05653050  0.35458164  0.11637984    -0.38080
C587        C  0.31738711  0.33242460  0.08128481    -0.04740
C588        C  0.32727981  0.30758423  0.10040685    -0.01860
C589        C  0.33634189  0.32230513  0.12361438     0.03130
C590        C  0.34250407  0.36241980  0.12658851    -0.04740
C591        C  0.33706824  0.38737759  0.10612934    -0.01850
C592        C  0.32361073  0.37258844  0.08379848     0.03130
C593        C  0.33459574  0.26764710  0.09478024     0.37780
C594        C  0.34544539  0.42811022  0.10786173     0.37770
C595        C  0.31605788  0.39876870  0.06364465     0.36190
C596        C  0.33807478  0.29564981  0.14442869     0.36190
N597        N  0.30999749  0.41978594  0.04762592    -0.38630
N598        N  0.33932724  0.27430093  0.16093804    -0.38630
N599        N  0.35208335  0.46064382  0.10920962    -0.38070
N600        N  0.34352262  0.23665373  0.09027672    -0.38080
C601        C  0.16417942  0.16071232  0.07670926    -0.04740
C602        C  0.18416027  0.14262503  0.09427501    -0.01860
C603        C  0.17285469  0.13842229  0.11884628     0.03130
C604        C  0.13895800  0.14316528  0.12478644    -0.04740
C605        C  0.11729264  0.15403100  0.10548439    -0.01850
C606        C  0.13020244  0.16495252  0.08189518     0.03130
C607        C  0.21611869  0.12751539  0.08675854     0.37780
C608        C  0.08200036  0.15456476  0.10986732     0.37770
C609        C  0.10882963  0.18140843  0.06333160     0.36190
C610        C  0.19712030  0.13527195  0.13819092     0.36190
N611        N  0.09176061  0.19454185  0.04849366    -0.38630
N612        N  0.21658151  0.13445457  0.15366698    -0.38630
N613        N  0.05381266  0.15484412  0.11334472    -0.38070
N614        N  0.24111301  0.11437749  0.08047369    -0.38080
C615        C  0.31062620  0.16487118  0.08155281    -0.04740
C616        C  0.34243529  0.14734380  0.08076492    -0.01860
C617        C  0.35862711  0.13742456  0.10310718     0.03130
C618        C  0.34319406  0.14412632  0.12631210    -0.04740
C619        C  0.31152034  0.16045655  0.12737797    -0.01850
C620        C  0.29534106  0.17094511  0.10550447     0.03130
C621        C  0.36004589  0.14220453  0.05737822     0.37780
C622        C  0.29620001  0.16875699  0.15147176     0.37770
C623        C  0.26390325  0.19074945  0.10868271     0.36190
C624        C  0.39171633  0.12159513  0.10237756     0.36190
N625        N  0.23936418  0.20727883  0.11178292    -0.38630
N626        N  0.41821436  0.10921980  0.10189176    -0.38630
N627        N  0.28429599  0.17552409  0.17066803    -0.38070
N628        N  0.37466208  0.13801969  0.03894196    -0.38080
C629        C  0.41615424  0.43404312  0.58104565    -0.04740
C630        C  0.42381185  0.39598789  0.58837021    -0.01860
C631        C  0.41532817  0.38329014  0.61260653     0.03130
C632        C  0.40097641  0.40950792  0.63001694    -0.04740
C633        C  0.39287568  0.44744619  0.62218555    -0.01850
C634        C  0.39877017  0.45860058  0.59750230     0.03130
C635        C  0.44178902  0.37070687  0.57140486     0.37780
C636        C  0.38073120  0.47627070  0.63981454     0.37770
C637        C  0.38710091  0.99575881  0.58890257     0.36190
C638        C  0.42177127  0.34352794  0.61960842     0.36190
N639        N  0.37712990  0.02494774  0.58177966    -0.38630
N640        N  0.42696305  0.31177083  0.62515976    -0.38630
N641        N  0.37111932  0.49902888  0.65400688    -0.38070
N642        N  0.45620201  0.35071680  0.55778086    -0.38080
C643        C  0.39882555  0.12001183  0.62955359    -0.04740
C644        C  0.37427860  0.11742802  0.61091586    -0.01860
C645        C  0.38364575  0.11236655  0.58558051     0.03130
C646        C  0.41723381  0.11247585  0.57881134    -0.04740
C647        C  0.44024221  0.12522065  0.59614291    -0.01850
C648        C  0.43229286  0.12484145  0.62154709     0.03130
C649        C  0.33962961  0.11997198  0.61749952     0.37780
C650        C  0.47229934  0.13849760  0.58750012     0.37770
C651        C  0.45958560  0.12607893  0.63875109     0.36190
C652        C  0.35905050  0.10630057  0.56667604     0.36190
N653        N  0.48147035  0.12731921  0.65231961    -0.38630
N654        N  0.33942156  0.10148563  0.55155925    -0.38630
N655        N  0.99740631  0.15027675  0.58050445    -0.38070
N656        N  0.31191757  0.12202550  0.62265517    -0.38080
C657        C  0.08711289  0.41746813  0.62929003    -0.04740
C658        C  0.09084065  0.45644674  0.62163756    -0.01860
C659        C  0.08230542  0.46742020  0.59742362     0.03130
C660        C  0.06527997  0.44165096  0.58190908    -0.04740
C661        C  0.06289348  0.40235163  0.58870392    -0.01850
C662        C  0.07479110  0.39000949  0.61203184     0.03130
C663        C  0.10182286  0.48595715  0.63891780     0.37780
C664        C  0.04857515  0.37471098  0.57161795     0.37770
C665        C  0.07480778  0.34911470  0.61804097     0.36190
C666        C  0.09486705  0.00324555  0.58724037     0.36190
N667        N  0.07503946  0.31642821  0.62273531    -0.38630
N668        N  0.10693322  0.03043745  0.57860160    -0.38630
N669        N  0.03744485  0.35261294  0.55784397    -0.38070
N670        N  0.11045049  0.50919307  0.65295762    -0.38080
C671        C  0.09163220  0.10817253  0.63188257    -0.04740
C672        C  0.06189891  0.08753860  0.63054650    -0.01860
C673        C  0.04574627  0.08324815  0.60788090     0.03130
C674        C  0.06070613  0.09631244  0.58500029    -0.04740
C675        C  0.09107101  0.11671763  0.58647742    -0.01850
C676        C  0.10622845  0.12285870  0.60989855     0.03130
C677        C  0.04778492  0.06988538  0.65288572     0.37780
C678        C  0.10758251  0.13016537  0.56408695     0.37770
C679        C  0.13703422  0.14382629  0.61141883     0.36190
C680        C  0.01362268  0.06446448  0.60909116     0.36190
N681        N  0.16171615  0.16041826  0.61265875    -0.38630
N682        N  0.48840642  0.04894019  0.61047067    -0.38630
N683        N  0.12099771  0.14086271  0.54627740    -0.38070
N684        N  0.03651297  0.05599336  0.67060117    -0.38080
C685        C  0.13200742  0.13765980  0.86504533    -0.04740
C686        C  0.14135733  0.11438934  0.88533008    -0.01860
C687        C  0.15830879  0.13084625  0.90565120     0.03130
C688        C  0.16621448  0.17087648  0.90587437    -0.04740
C689        C  0.15714985  0.19383735  0.88527792    -0.01850
C690        C  0.13976841  0.17751230  0.86532331     0.03130
C691        C  0.13412351  0.07323394  0.88501551     0.37780
C692        C  0.16685436  0.23412084  0.88352488     0.37770
C693        C  0.13156458  0.20179538  0.84433119     0.36190
C694        C  0.16981903  0.10575227  0.92529068     0.36190
N695        N  0.12516854  0.22163680  0.82781567    -0.38630
N696        N  0.17919023  0.08538741  0.94071218    -0.38630
N697        N  0.17487982  0.26593386  0.88072287    -0.38070
N698        N  0.12847813  0.04038097  0.88468233    -0.38080
C699        C  0.32717802  0.33571883  0.91267532    -0.04740
C700        C  0.32707967  0.37589701  0.90804606    -0.01860
C701        C  0.34324415  0.39071062  0.88664921     0.03130
C702        C  0.35868074  0.36522368  0.86928406    -0.04740
C703        C  0.36092184  0.32533563  0.87533791    -0.01850
C704        C  0.34708506  0.31145795  0.89774224     0.03130
C705        C  0.31060595  0.40203079  0.92533517     0.37780
C706        C  0.37527791  0.29762304  0.85805427     0.37770
C707        C  0.35574717  0.27325584  0.90666124     0.36190
C708        C  0.34374496  0.43219587  0.88247725     0.36190
N709        N  0.36376865  0.24344969  0.91426663    -0.38630
N710        N  0.34405457  0.46528792  0.87912702    -0.38630
N711        N  0.38637933  0.27496509  0.84443997    -0.38070
N712        N  0.29764810  0.42306055  0.93913871    -0.38080
C713        C  0.16379868  0.33974120  0.91108960    -0.04740
C714        C  0.13019783  0.33186085  0.90706766    -0.01860
C715        C  0.11310955  0.35108132  0.88785517     0.03130
C716        C  0.13008230  0.37749216  0.87184579    -0.04740
C717        C  0.16050845  0.39199941  0.88102544    -0.01850
C718        C  0.17869077  0.37051417  0.89826670     0.03130
C719        C  0.11337002  0.30338456  0.92241938     0.37780
C720        C  0.17034003  0.43187788  0.87679687     0.37770
C721        C  0.21258352  0.38081428  0.90317058     0.36190
C722        C  0.07755200  0.34817733  0.88789317     0.36190
N723        N  0.23979328  0.38861115  0.90676689    -0.38630
N724        N  0.04910468  0.34595388  0.88847534    -0.38630
N725        N  0.17837892  0.46366339  0.87365835    -0.38070
N726        N  0.09999438  0.28069133  0.93468545    -0.38080
C727        C  0.31880147  0.16873335  0.90607837    -0.04740
C728        C  0.33591170  0.13284859  0.90807050    -0.01860
C729        C  0.35364986  0.11728225  0.88742122     0.03130
C730        C  0.35497415  0.13730350  0.86464949    -0.04740
C731        C  0.33766463  0.17240756  0.86228978    -0.01850
C732        C  0.31935401  0.18778463  0.88249512     0.03130
C733        C  0.33396685  0.11037200  0.93075993     0.37780
C734        C  0.33751756  0.19204954  0.83841399     0.37770
C735        C  0.30108695  0.22332641  0.87825736     0.36190
C736        C  0.37001337  0.08006581  0.88935462     0.36190
N737        N  0.28656613  0.25151329  0.87445190    -0.38630
N738        N  0.38297681  0.05031063  0.89082944    -0.38630
N739        N  0.33728270  0.20750752  0.81936361    -0.38070
N740        N  0.33252328  0.09198366  0.94868920    -0.38080
O741        O  0.42798628  0.68915617  0.79964382    -0.74690
O742        O  0.45498370  0.64051875  0.77883441    -0.53600
C743        C  0.43225393  0.65327083  0.79398266     0.79030
O744        O  0.43318429  0.81799282  0.70492232    -0.59300
O745        O  0.45891432  0.86589794  0.72680713    -0.52330
C746        C  0.43827170  0.85355680  0.71044235     0.71050
O747        O  0.42403094  0.69292973  0.71131479    -0.73850
O748        O  0.45495421  0.64318451  0.72654943    -0.54420
C749        C  0.43036961  0.65696019  0.71418369     0.77050
O750        O  0.43067892  0.81632819  0.80297724    -0.59000
O751        O  0.45567484  0.86509524  0.78116257    -0.52120
C752        C  0.43423776  0.85212845  0.79715905     0.73640
Zr753      Zr  0.45016049  0.75286273  0.79091420     2.54710
O754        O  0.39026752  0.75438179  0.79105867    -0.79560
O755        O  0.45590391  0.75063688  0.83593799    -0.92980
Zr756      Zr  0.44961119  0.75435341  0.71789414     2.64680
O757        O  0.38974830  0.75772705  0.71564914    -0.97940
O758        O  0.45658467  0.74988945  0.67288431    -0.80000
O759        O  0.44956286  0.71589586  0.75405441    -0.83350
O760        O  0.44903179  0.79168628  0.75474574    -2.18060
O761        O  0.06344081  0.81635060  0.80197907    -0.66740
O762        O  0.03756052  0.86496966  0.78102737    -0.51310
C763        C  0.05899828  0.85221532  0.79665830     0.72030
O764        O  0.07357043  0.69366091  0.71444433    -0.59650
O765        O  0.03825863  0.64457196  0.72477209    -0.51630
C766        C  0.06507534  0.65800641  0.71465037     0.73830
O767        O  0.06229752  0.81792942  0.70426376    -0.71050
O768        O  0.03555132  0.86576407  0.72611247    -0.49720
C769        C  0.05685672  0.85357828  0.70974341     0.75210
O770        O  0.06473635  0.68803340  0.79869871    -0.66380
O771        O  0.03721971  0.63970033  0.77849597    -0.53570
C772        C  0.05971005  0.65215521  0.79343894     0.73590
Zr773      Zr  0.04548454  0.75265269  0.78901659     2.77540
O774        O  0.10489333  0.75312491  0.78188702    -0.97130
O775        O  0.04786504  0.74982847  0.83422389    -0.77950
Zr776      Zr  0.04395970  0.75391442  0.71624547     2.70070
O777        O  0.10192250  0.75947927  0.70469619    -0.79190
O778        O  0.03216591  0.74390142  0.67239210    -0.98280
Zr779      Zr  0.99676481  0.67495709  0.75294852     2.21500
Zr780      Zr  0.49714344  0.83162542  0.75442358     2.11130
O781        O  0.04539733  0.79170884  0.75298123    -2.46960
O782        O  0.04451472  0.71528118  0.75238591    -0.78990
O783        O  0.49781250  0.79233189  0.79120516    -0.71180
O784        O  0.99663419  0.71365445  0.71573641    -2.32140
O785        O  0.99767402  0.71316451  0.79044151    -2.28350
O786        O  0.49688879  0.79405342  0.71685990    -0.72940
H787        H  0.42927896  0.80728110  0.75489888     0.79050
H788        H  0.99642025  0.69733686  0.70109680     0.80140
H789        H  0.06501419  0.80748590  0.75263997     0.82370
H790        H  0.99779587  0.69673056  0.80494306     0.79970
H791        H  0.45848663  0.72185881  0.66920550     0.43010
H792        H  0.03227349  0.77025595  0.66519618     0.41980
H793        H  0.11309251  0.76578524  0.72046743     0.41660
H794        H  0.10846128  0.73606274  0.76724718     0.39590
H795        H  0.03845710  0.77476236  0.84009332     0.42720
H796        H  0.47987701  0.74841904  0.83864059     0.37510
H797        H  0.38426360  0.74767347  0.77377830     0.43620
H798        H  0.38327459  0.78010095  0.72621613     0.40040
H799        H  0.11024969  0.77941538  0.77578737     0.44960
H800        H  0.44695594  0.72512303  0.84093360     0.43680
H801        H  0.38512783  0.76602496  0.69843192     0.43820
H802        H  0.05229699  0.73146242  0.66549197     0.44170
C803        C  0.37017405  0.61952440  0.84191226     0.03730
C804        C  0.39892928  0.63502409  0.83120595    -0.12420
C805        C  0.40813775  0.62658876  0.80630443     0.01230
C806        C  0.38812610  0.60100880  0.79241980    -0.10950
C807        C  0.35883727  0.58564593  0.80313598     0.03720
C808        C  0.35092542  0.59428949  0.82800974    -0.10370
H809        H  0.41247574  0.65662440  0.84159246     0.09310
H810        H  0.39345279  0.59628918  0.77287376     0.06840
H811        H  0.32799033  0.58386535  0.83609486     0.06690
O812        O  0.30621281  0.57345935  0.69681862    -0.74690
O813        O  0.34287517  0.53952643  0.72016827    -0.53600
C814        C  0.33575954  0.56498599  0.70376932     0.79030
O815        O  0.18990897  0.57374591  0.79412273    -0.59300
O816        O  0.15106343  0.54264069  0.77125963    -0.52330
C817        C  0.15971991  0.56652365  0.78831167     0.71050
O818        O  0.30302281  0.57375986  0.79366999    -0.73850
O819        O  0.34239681  0.54020376  0.77198223    -0.54420
C820        C  0.33335253  0.56533780  0.78838334     0.77050
O821        O  0.19304080  0.57716756  0.69597456    -0.59000
O822        O  0.15441591  0.54505066  0.71930417    -0.52120
C823        C  0.16302224  0.57038362  0.70305438     0.73640
Zr824      Zr  0.24880965  0.55503861  0.70738242     2.54710
O825        O  0.25034786  0.62543432  0.70560625    -0.79560
O826        O  0.24968435  0.54913439  0.66222251    -0.92980
Zr827      Zr  0.24663095  0.55670372  0.78180381     2.64680
O828        O  0.24712183  0.62719489  0.78054691    -0.97940
O829        O  0.24589775  0.55842797  0.82708941    -0.80000
O830        O  0.27929182  0.55627345  0.74490514    -0.83350
O831        O  0.21627502  0.55746686  0.74451684    -2.18060
O832        O  0.18972938  0.92253429  0.69579756    -0.66740
O833        O  0.15254802  0.95682464  0.71938523    -0.51310
C834        C  0.16000132  0.93144788  0.70278761     0.72030
O835        O  0.30066395  0.92252113  0.79487386    -0.59650
O836        O  0.34057002  0.95506850  0.77335694    -0.51630
C837        C  0.33107452  0.93046575  0.78983071     0.73830
O838        O  0.18878649  0.92634835  0.79421185    -0.71050
O839        O  0.15032734  0.95889248  0.77198724    -0.49720
C840        C  0.15876180  0.93476393  0.78889761     0.75210
O841        O  0.30330212  0.91826597  0.69799367    -0.66380
O842        O  0.34033556  0.95115404  0.72180381    -0.53570
C843        C  0.33281573  0.92570143  0.70545825     0.73590
Zr844      Zr  0.24667431  0.94029514  0.70792140     2.77540
O845        O  0.24529758  0.86978727  0.70698821    -0.97130
O846        O  0.24927401  0.94460035  0.66275500    -0.77950
Zr847      Zr  0.24533403  0.94163060  0.78209887     2.70070
O848        O  0.24371170  0.87117522  0.78078809    -0.79190
O849        O  0.24487729  0.94140175  0.82740412    -0.98280
Zr850      Zr  0.30986295  0.99741994  0.74605111     2.21500
Zr851      Zr  0.18381421  0.99988613  0.74507919     2.11130
O852        O  0.21434228  0.94076552  0.74505470    -2.46960
O853        O  0.27772836  0.93970095  0.74523443    -0.78990
O854        O  0.21528479  0.49850094  0.70719534    -0.71180
O855        O  0.27769583  0.99864199  0.78331077    -2.32140
O856        O  0.28016907  0.99690705  0.70781513    -2.28350
O857        O  0.21402919  0.99973602  0.78274131    -0.72940
H858        H  0.20251607  0.58029538  0.74450185     0.79050
H859        H  0.29142528  0.99858758  0.79784765     0.80140
H860        H  0.19983128  0.91861081  0.74522357     0.82370
H861        H  0.29516092  0.99620378  0.69372048     0.79970
H862        H  0.25805125  0.53488852  0.83207243     0.43010
H863        H  0.22812108  0.96099248  0.83221064     0.41980
H864        H  0.25393144  0.86429090  0.76454201     0.41660
H865        H  0.22624194  0.86269755  0.71770036     0.39590
H866        H  0.23196578  0.96359032  0.65851024     0.42720
H867        H  0.27067074  0.53576183  0.65817718     0.37510
H868        H  0.25426025  0.63362103  0.72299030     0.43620
H869        H  0.22692878  0.63432363  0.77150736     0.40040
H870        H  0.23833242  0.86318319  0.68990623     0.44960
H871        H  0.25301005  0.57595060  0.65623535     0.43680
H872        H  0.24262775  0.63528056  0.79795591     0.43820
H873        H  0.23483688  0.91627903  0.83205238     0.44170
C874        C  0.11893404  0.88731414  0.84530991     0.03730
C875        C  0.09019720  0.87205631  0.83416551    -0.12420
C876        C  0.08228726  0.87905131  0.80901491     0.01230
C877        C  0.10294747  0.90292747  0.79455836    -0.10950
C878        C  0.13291661  0.91579829  0.80434363     0.03720
C879        C  0.14070740  0.90674602  0.82897059    -0.10370
H880        H  0.07494547  0.85138740  0.84361294     0.09310
H881        H  0.09789659  0.90717804  0.77501462     0.06840
H882        H  0.16543938  0.91298775  0.83444711     0.06690
C883        C  0.37015903  0.87979817  0.84432911     0.03730
C884        C  0.40139644  0.87044528  0.83446067    -0.12420
C885        C  0.40959850  0.87803904  0.80935997     0.01230
C886        C  0.38744241  0.89970318  0.79491648    -0.10950
C887        C  0.35637414  0.91056585  0.80487821     0.03720
C888        C  0.34797439  0.89972476  0.82929577    -0.10370
H889        H  0.41832720  0.85385123  0.84563141     0.09310
H890        H  0.39291657  0.90470026  0.77541900     0.06840
H891        H  0.32353355  0.90609068  0.83656319     0.06690
C892        C  0.11922058  0.61984003  0.84172092     0.03730
C893        C  0.14043802  0.59635600  0.82769548    -0.12420
C894        C  0.13365745  0.58689445  0.80291196     0.01230
C895        C  0.10435435  0.60090331  0.79206312    -0.10950
C896        C  0.08271733  0.62507604  0.80594015     0.03720
C897        C  0.08985906  0.63283148  0.83108282    -0.10370
H898        H  0.16359305  0.58747428  0.83573945     0.09310
H899        H  0.10016882  0.59630308  0.77242542     0.06840
H900        H  0.07440185  0.65282801  0.84158730     0.06690
C901        C  0.10458647  0.61639388  0.65714298     0.03730
C902        C  0.08372327  0.63673405  0.67352256    -0.12420
C903        C  0.08662738  0.63316735  0.69923416     0.01230
C904        C  0.11312083  0.61208087  0.70882877    -0.10950
C905        C  0.13613847  0.59393351  0.69257750     0.03720
C906        C  0.13162785  0.59604239  0.66666427    -0.10370
H907        H  0.06319734  0.65299163  0.66609799     0.09310
H908        H  0.11637271  0.61066111  0.72876596     0.06840
H909        H  0.14751028  0.57959029  0.65418016     0.06690
C910        C  0.09544088  0.90613348  0.65536031     0.03730
C911        C  0.07173519  0.88780825  0.67060173    -0.12420
C912        C  0.07773390  0.88124482  0.69589315     0.01230
C913        C  0.10734775  0.89437252  0.70617921    -0.10950
C914        C  0.13160445  0.91212790  0.69112436     0.03720
C915        C  0.12599299  0.91651983  0.66562731    -0.10370
H916        H  0.04857907  0.87845379  0.66278604     0.09310
H917        H  0.11194659  0.88982427  0.72577151     0.06840
H918        H  0.14452752  0.93053681  0.65411939     0.06690
C919        C  0.39041338  0.61774333  0.65697379     0.03730
C920        C  0.40809220  0.64049656  0.67369197    -0.12420
C921        C  0.40923752  0.63177456  0.69901660     0.01230
C922        C  0.38645043  0.60531834  0.70886929    -0.10950
C923        C  0.36356274  0.58724441  0.69298363     0.03720
C924        C  0.36694993  0.59175106  0.66699615    -0.10370
H925        H  0.42250170  0.66458839  0.66673628     0.09310
H926        H  0.38476706  0.60122921  0.72878824     0.06840
H927        H  0.35166470  0.57456153  0.65489539     0.06690
C928        C  0.39521475  0.89854611  0.65656502     0.03730
C929        C  0.42114167  0.88478502  0.67125521    -0.12420
C930        C  0.41688490  0.88048489  0.69706220     0.01230
C931        C  0.38719715  0.89243556  0.70831152    -0.10950
C932        C  0.36101104  0.90571532  0.69373867     0.03720
C933        C  0.36451153  0.90625534  0.66788431    -0.10370
H934        H  0.44450256  0.87693023  0.66266519     0.09310
H935        H  0.38394812  0.88997549  0.72828751     0.06840
H936        H  0.34430930  0.91666188  0.65673311     0.06690
O937        O  0.31153010  0.82825385  0.95504346    -0.74690
O938        O  0.28370667  0.79413217  0.92552701    -0.53600
C939        C  0.30596519  0.81843752  0.93241820     0.79030
O940        O  0.30381748  0.67177679  0.03638151    -0.59300
O941        O  0.27476881  0.70978632  0.06314898    -0.52330
C942        C  0.29544819  0.68270766  0.05868980     0.71050
O943        O  0.30884928  0.67771518  0.95050580    -0.73850
O944        O  0.27722943  0.71038873  0.92308414    -0.54420
C945        C  0.30041039  0.68646512  0.92806027     0.77050
O946        O  0.30709368  0.82660234  0.03769853    -0.59000
O947        O  0.27646493  0.79064270  0.06491887    -0.52120
C948        C  0.29911266  0.81570379  0.05982106     0.73640
Zr949      Zr  0.28981678  0.80983227  0.99565055     2.54710
O950        O  0.34969688  0.81010041  0.99700062    -0.79560
O951        O  0.28563516  0.88015566  0.99694833    -0.92980
Zr952      Zr  0.29034979  0.69348765  0.99351401     2.64680
O953        O  0.35021533  0.69695015  0.99369379    -0.97940
O954        O  0.28951831  0.62300982  0.99229921    -0.80000
O955        O  0.29128386  0.75264436  0.97087152    -0.83350
O956        O  0.28990110  0.75085274  0.01805828    -2.18060
O957        O  0.17372624  0.82797317  0.03710319    -0.66740
O958        O  0.20349802  0.79264194  0.06470922    -0.51310
C959        C  0.18188789  0.81838112  0.05933441     0.72030
O960        O  0.17545868  0.67883090  0.94946240    -0.59650
O961        O  0.20712651  0.71317395  0.92206964    -0.51630
C962        C  0.18419052  0.68866436  0.92721027     0.73830
O963        O  0.17246867  0.67327364  0.03333696    -0.71050
O964        O  0.20276902  0.70611216  0.06205479    -0.49720
C965        C  0.18064138  0.68131305  0.05583236     0.75210
O966        O  0.17276241  0.82595574  0.95337433    -0.66380
O967        O  0.20656225  0.79762626  0.92425517    -0.53570
C968        C  0.18217681  0.81946890  0.93082861     0.73590
Zr969      Zr  0.19140201  0.80959651  0.99478927     2.77540
O970        O  0.13141231  0.80942850  0.99500152    -0.97130
O971        O  0.19423165  0.87999058  0.99405272    -0.77950
Zr972      Zr  0.19188689  0.69390270  0.99216697     2.70070
O973        O  0.13199172  0.69239854  0.99149829    -0.79190
O974        O  0.19696293  0.62367736  0.99063958    -0.98280
Zr975      Zr  0.24262937  0.75403311  0.94678847     2.21500
Zr976      Zr  0.23915202  0.75081376  0.04050506     2.11130
O977        O  0.18991162  0.75080902  0.01720408    -2.46960
O978        O  0.19214586  0.75284004  0.96964940    -0.78990
O979        O  0.23982360  0.81048663  0.01905659    -0.71180
O980        O  0.24197993  0.69422162  0.96894317    -2.32140
O981        O  0.24145117  0.81179159  0.97113939    -2.28350
O982        O  0.24010697  0.69256497  0.01673482    -0.72940
H983        H  0.30847490  0.75039202  0.02909179     0.79050
H984        H  0.24222264  0.67240420  0.95763298     0.80140
H985        H  0.17068867  0.75035281  0.02797041     0.82370
H986        H  0.24177079  0.83436506  0.96058049     0.79970
H987        H  0.27117503  0.61645899  0.98108804     0.43010
H988        H  0.21031185  0.61704373  0.00530628     0.41980
H989        H  0.12561229  0.71871103  0.98609596     0.41660
H990        H  0.12505877  0.78976670  0.00751737     0.39590
H991        H  0.21015261  0.88669321  0.00718160     0.42720
H992        H  0.27085036  0.88690207  0.98313182     0.37510
H993        H  0.35621420  0.78396812  0.99106991     0.43620
H994        H  0.35579283  0.70565826  0.01069235     0.40040
H995        H  0.12497494  0.83450907  0.00263743     0.44960
H996        H  0.30762389  0.88937572  0.99145334     0.43680
H997        H  0.35751833  0.66960468  0.99284849     0.43820
H998        H  0.17460171  0.61406372  0.99479413     0.44170
C999        C  0.12956113  0.87910833  0.15241508     0.03730
C1000       C  0.14031569  0.91326358  0.16418911    -0.12420
C1001       C  0.13423213  0.91973911  0.18974051     0.01230
C1002       C  0.11361966  0.89430262  0.20280696    -0.10950
C1003       C  0.10146741  0.86123722  0.19087099     0.03720
C1004       C  0.11011316  0.85318249  0.16613988    -0.10370
H1005       H  0.15600038  0.93327759  0.15406136     0.09310
H1006       H  0.10842811  0.89904079  0.22241445     0.06840
H1007       H  0.10179021  0.82640426  0.15771513     0.06690
C1008       C  0.35944255  0.63522361  0.15019946     0.03730
C1009       C  0.37985697  0.66296896  0.16124574    -0.12420
C1010       C  0.38521908  0.66229544  0.18699701     0.01230
C1011       C  0.37039034  0.63337779  0.20168496    -0.10950
C1012       C  0.35053509  0.60509997  0.19058125     0.03720
C1013       C  0.34614329  0.60549741  0.16478244    -0.10370
H1014       H  0.38982804  0.68642430  0.15012698     0.09310
H1015       H  0.37341694  0.63367272  0.22167670     0.06840
H1016       H  0.32871907  0.58560001  0.15648368     0.06690
C1017       C  0.35505584  0.87725563  0.15092080     0.03730
C1018       C  0.33918636  0.90770824  0.16357136    -0.12420
C1019       C  0.34711979  0.91704033  0.18840032     0.01230
C1020       C  0.37024141  0.89433535  0.20086856    -0.10950
C1021       C  0.38587008  0.86365167  0.18828689     0.03720
C1022       C  0.38010883  0.85723786  0.16307452    -0.10370
H1023       H  0.31898279  0.92250756  0.15467588     0.09310
H1024       H  0.37484080  0.89921669  0.22045110     0.06840
H1025       H  0.39351866  0.83441989  0.15339361     0.06690
O1026       O  0.18742971  0.93913932  0.19762599    -0.74690
O1027       O  0.14653715  0.96836604  0.22048898    -0.53600
C1028       C  0.15710686  0.94474018  0.20344595     0.79030
O1029       O  0.29600096  0.93036547  0.29339072    -0.59300
O1030       O  0.33632496  0.96576829  0.27396959    -0.52330
C1031       C  0.32613476  0.93834162  0.28838407     0.71050
O1032       O  0.18898147  0.92548122  0.29124952    -0.73850
O1033       O  0.14850662  0.96280127  0.27417103    -0.54420
C1034       C  0.15893376  0.93388121  0.28711111     0.77050
O1035       O  0.29449721  0.93808996  0.19688087    -0.59000
O1036       O  0.33550534  0.96649066  0.21921138    -0.52120
C1037       C  0.32472469  0.94283954  0.20240302     0.73640
Zr1038     Zr  0.24132934  0.95972842  0.20984636     2.54710
O1039       O  0.24122606  0.88947132  0.20606628    -0.79560
O1040       O  0.24288336  0.97465421  0.16554899    -0.92980
Zr1041     Zr  0.24184418  0.95311802  0.28291494     2.64680
O1042       O  0.24228369  0.88250670  0.28297424    -0.97940
O1043       O  0.24002702  0.95786755  0.32813459    -0.80000
O1044       O  0.20951145  0.95576591  0.24663117    -0.83350
O1045       O  0.27365466  0.95532087  0.24597482    -2.18060
O1046       O  0.29662024  0.59091935  0.20151170    -0.66740
O1047       O  0.33721899  0.55648803  0.22061307    -0.51310
C1048       C  0.32693644  0.58259523  0.20547449     0.72030
O1049       O  0.18822615  0.59245575  0.29590570    -0.59650
O1050       O  0.14760236  0.56073405  0.27497425    -0.51630
C1051       C  0.15818533  0.58731851  0.28989752     0.73830
O1052       O  0.29406999  0.59066969  0.29658455    -0.71050
O1053       O  0.33481788  0.56094684  0.27371074    -0.49720
C1054       C  0.32404049  0.58646334  0.28953874     0.75210
O1055       O  0.18752973  0.59056348  0.20124326    -0.66240
O1056       O  0.14656714  0.55740281  0.22158506    -0.53570
C1057       C  0.15715117  0.58285154  0.20584199     0.73590
Zr1058     Zr  0.24175614  0.57109936  0.21398086     2.77540
O1059       O  0.23964646  0.64133782  0.21840157    -0.97130
O1060       O  0.24460687  0.56630567  0.16883916    -0.77950
Zr1061     Zr  0.24115084  0.56409163  0.28731576     2.70070
O1062       O  0.24174365  0.63188396  0.29991132    -0.79190
O1063       O  0.23956882  0.54483834  0.33082571    -0.98280
Zr1064     Zr  0.17589906  0.51226516  0.24870026     2.21500
Zr1065     Zr  0.30712136  0.51207509  0.24788583     2.11130
O1066       O  0.27322855  0.56866772  0.25030667    -2.46960
O1067       O  0.20951745  0.56864161  0.25082513    -0.78990
O1068       O  0.27500668  0.51520984  0.21117995    -0.71180
O1069       O  0.20738358  0.50853257  0.28609837    -2.32140
O1070       O  0.20828146  0.51547576  0.21147710    -2.28350
O1071       O  0.27552917  0.50880352  0.28576858    -0.72940
H1072       H  0.28700988  0.93219378  0.24502142     0.79050
H1073       H  0.19320968  0.50734912  0.30065140     0.80140
H1074       H  0.28621939  0.59205981  0.25043569     0.82370
H1075       H  0.19468499  0.51636828  0.19688255     0.79970
H1076       H  0.21632226  0.95713863  0.33265548     0.43010
H1077       H  0.26204498  0.55014209  0.33689228     0.41980
H1078       H  0.24269042  0.64636994  0.28405891     0.41660
H1079       H  0.26269815  0.64950856  0.22106828     0.39590
H1080       H  0.26546560  0.55247814  0.16508460     0.42720
H1081       H  0.22020239  0.97027104  0.15963477     0.37510
H1082       H  0.23546155  0.88022769  0.22297600     0.43620
H1083       H  0.26035588  0.87498715  0.27138783     0.40040
H1084       H  0.23422605  0.65105519  0.20166865     0.44960
H1085       H  0.25615574  0.95375362  0.15771276     0.43680
H1086       H  0.25021378  0.87523158  0.29965954     0.43820
H1087       H  0.22555797  0.56463142  0.33913711     0.44170
O1088       O  0.04703826  0.84554913  0.19823361    -0.74690
O1089       O  0.08660424  0.80868916  0.21667995    -0.53600
C1090       C  0.07698290  0.83694990  0.20302538     0.79030
O1091       O  0.43498158  0.83305709  0.29329538    -0.59300
O1092       O  0.39520351  0.80650280  0.26893658    -0.52330
C1093       C  0.40498282  0.82860265  0.28687707     0.71050
O1094       O  0.04136312  0.83772270  0.29334077    -0.73850
O1095       O  0.08273000  0.80989000  0.27027494    -0.54420
C1096       C  0.07163034  0.83337264  0.28727484     0.77050
O1097       O  0.43962998  0.84638578  0.19579905    -0.59000
O1098       O  0.39877614  0.81087140  0.21461204    -0.52120
C1099       C  0.40943651  0.83875445  0.20067712     0.73640
Zr1100     Zr  0.99251242  0.82028712  0.20586623     2.54710
O1101       O  0.99287291  0.89044392  0.20165962    -0.79560
O1102       O  0.49440419  0.81083458  0.16095422    -0.92980
Zr1103     Zr  0.98923615  0.81677326  0.27880700     2.64680
O1104       O  0.98876518  0.88659313  0.27200206    -0.97940
O1105       O  0.48884067  0.81776177  0.32409051    -0.80000
O1106       O  0.02308965  0.81977022  0.24292706    -0.83350
O1107       O  0.45866590  0.81951118  0.24212491    -2.18060
O1108       O  0.43866027  0.68457853  0.19159928    -0.66740
O1109       O  0.39790436  0.71505896  0.21406778    -0.51310
C1110       C  0.40848201  0.68962393  0.19813573     0.72030
O1111       O  0.04499746  0.68419506  0.28821778    -0.59650
O1112       O  0.08583616  0.71906481  0.26908570    -0.51630
C1113       C  0.07532478  0.69276156  0.28409264     0.73830
O1114       O  0.43572045  0.68627510  0.28919570    -0.71050
O1115       O  0.39547168  0.71816197  0.26806584    -0.49720
C1116       C  0.40555155  0.69353584  0.28428081     0.75210
O1117       O  0.04703544  0.68481734  0.19322508    -0.66380
O1118       O  0.08605801  0.71604340  0.21619833    -0.53570
C1119       C  0.07675012  0.69057266  0.20010136     0.73590
Zr1120     Zr  0.49242217  0.70837219  0.20302120     2.77540
O1121       O  0.49438352  0.63818269  0.19811331    -0.97130
O1122       O  0.49419568  0.71987012  0.15837189    -0.77950
Zr1123     Zr  0.49048865  0.70421862  0.27630304     2.70070
O1124       O  0.48931966  0.63387940  0.27309035    -0.79190
O1125       O  0.49112702  0.70355565  0.32159431    -0.98280
Zr1126     Zr  0.05609578  0.76296900  0.24222383     2.21500
Zr1127     Zr  0.42578603  0.76242045  0.24072948     2.11130
O1128       O  0.45935872  0.70535713  0.23956582    -2.46960
O1129       O  0.02352189  0.70568570  0.23996313    -0.78990
O1130       O  0.45873366  0.76443751  0.20342809    -0.71180
O1131       O  0.02262285  0.76082823  0.27894628    -2.32140
O1132       O  0.02598380  0.76436833  0.20422539    -2.28350
O1133       O  0.45693303  0.76016209  0.27804374    -0.72940
H1134       H  0.44515349  0.84251948  0.24290838     0.79050
H1135       H  0.03585416  0.76036077  0.29374559     0.80140
H1136       H  0.44601493  0.68222391  0.23932003     0.82370
H1137       H  0.04067450  0.76505347  0.18995357     0.79970
H1138       H  0.99934306  0.79304125  0.32886750     0.43010
H1139       H  0.47243740  0.72030789  0.32678003     0.41980
H1140       H  0.00048751  0.62808457  0.25702145     0.41660
H1141       H  0.47680677  0.62816297  0.20927909     0.39590
H1142       H  0.47162488  0.72837906  0.15426268     0.42720
H1143       H  0.01813917  0.81102787  0.15650506     0.37510
H1144       H  0.99173585  0.90027411  0.21897513     0.43620
H1145       H  0.46594203  0.89512480  0.27570616     0.40040
H1146       H  0.48636737  0.63312414  0.18108869     0.44960
H1147       H  0.98579726  0.83536172  0.15410209     0.43680
H1148       H  0.00217124  0.89785159  0.28546154     0.43820
H1149       H  0.48412277  0.67702552  0.32616948     0.44170
C1150       C  0.12710702  0.63803204  0.15117717     0.03730
C1151       C  0.13852166  0.60674661  0.16536103    -0.12420
C1152       C  0.13399597  0.60593199  0.19128599     0.01230
C1153       C  0.11464969  0.63445238  0.20290361    -0.10950
C1154       C  0.10111582  0.66444755  0.18878284     0.03720
C1155       C  0.10782708  0.66657200  0.16313087    -0.10370
H1156       H  0.15369707  0.58462712  0.15655437     0.09310
H1157       H  0.11080750  0.63389458  0.22286977     0.06840
H1158       H  0.09856224  0.69096283  0.15270786     0.06690
C1159       C  0.10919574  0.64155758  0.33880999     0.03730
C1160       C  0.09423331  0.67000886  0.32447554    -0.12420
C1161       C  0.09878260  0.67052731  0.29859813     0.01230
C1162       C  0.11928851  0.64297867  0.28700472    -0.10950
C1163       C  0.13508530  0.61490273  0.30136942     0.03720
C1164       C  0.13078172  0.61503281  0.32730010    -0.10370
H1165       H  0.07585886  0.68877708  0.33307238     0.09310
H1166       H  0.12202844  0.64254397  0.26694416     0.06840
H1167       H  0.14178247  0.59223323  0.33825688     0.06690
C1168       C  0.37160348  0.63889824  0.33845412     0.03730
C1169       C  0.35034928  0.61303133  0.32668959    -0.12420
C1170       C  0.34663678  0.61397966  0.30090250     0.01230
C1171       C  0.36193928  0.64323335  0.28690086    -0.10950
C1172       C  0.38193066  0.67062510  0.29878771     0.03720
C1173       C  0.38654075  0.66834054  0.32462083    -0.10370
H1174       H  0.33923421  0.58968608  0.33731435     0.09310
H1175       H  0.35937490  0.64371198  0.26687187     0.06840
H1176       H  0.40469615  0.68668697  0.33344459     0.06690
C1177       C  0.10531822  0.89685290  0.33855073     0.03730
C1178       C  0.08676185  0.86884957  0.32582407    -0.12420
C1179       C  0.09402273  0.85915260  0.30076268     0.01230
C1180       C  0.11775641  0.88057726  0.28769097    -0.10950
C1181       C  0.13525238  0.90948530  0.30005551     0.03720
C1182       C  0.13135679  0.91460684  0.32568099    -0.10370
H1183       H  0.06573270  0.85566103  0.33502199     0.09310
H1184       H  0.12163725  0.87593115  0.26791540     0.06840
H1185       H  0.14733509  0.93476285  0.33522564     0.06690
C1186       C  0.37723931  0.89386044  0.33841605     0.03730
C1187       C  0.35774593  0.92019074  0.32540957    -0.12420
C1188       C  0.34995526  0.91326370  0.30047942     0.01230
C1189       C  0.36199083  0.88006287  0.28818072    -0.10950
C1190       C  0.38184849  0.85366675  0.30088490     0.03720
C1191       C  0.38783260  0.85983049  0.32634532    -0.10370
H1192       H  0.34929028  0.94657106  0.33446232     0.09310
H1193       H  0.35731670  0.87594363  0.26853831     0.06840
H1194       H  0.40404786  0.84022399  0.33607461     0.06690
O1195       O  0.05668249  0.94671238  0.53815672    -0.74690
O1196       O  0.02410242  0.98142628  0.56503098    -0.53600
C1197       C  0.04750384  0.95730500  0.56017565     0.79030
O1198       O  0.05556258  0.59731576  0.45211176    -0.59300
O1199       O  0.02088145  0.56583327  0.42646556    -0.52330
C1200       C  0.04466603  0.58905270  0.43016637     0.71050
O1201       O  0.05487636  0.59702218  0.53899739    -0.73850
O1202       O  0.02445999  0.55712168  0.56298959    -0.54420
C1203       C  0.04598137  0.58342792  0.56051726     0.77050
O1204       O  0.05988726  0.94430406  0.45429750    -0.59000
O1205       O  0.03143714  0.98060596  0.42648332    -0.52120
C1206       C  0.05347211  0.95540793  0.43209343     0.73640
Zr1207     Zr  0.04029351  0.96284859  0.49571591     2.54710
O1208       O  0.10016237  0.96551831  0.49642763    -0.79560
O1209       O  0.04010355  0.89234228  0.49554815    -0.92980
Zr1210     Zr  0.03875801  0.58019688  0.49543366     2.64680
O1211       O  0.09869916  0.58207285  0.49560671    -0.97940
O1212       O  0.03517337  0.65062233  0.49569539    -0.80000
O1213       O  0.03872410  0.52163229  0.51864087    -0.83350
O1214       O  0.04093411  0.52115003  0.47228162    -2.18060
O1215       O  0.42543239  0.94119576  0.45214713    -0.66740
O1216       O  0.45726706  0.97617430  0.42528533    -0.51310
C1217       C  0.43497785  0.95080662  0.43004461     0.72030
O1218       O  0.42113433  0.59917780  0.53497146    -0.59650
O1219       O  0.45184440  0.56452480  0.56228409    -0.51630
C1220       C  0.43034780  0.59057214  0.55707172     0.73830
O1221       O  0.42136189  0.59066810  0.45082062    -0.71050
O1222       O  0.45653577  0.55907388  0.42477334    -0.49720
C1223       C  0.43180999  0.58139160  0.42881979     0.75210
O1224       O  0.42525061  0.94003426  0.53704537    -0.66380
O1225       O  0.45252644  0.97901488  0.56425879    -0.53570
C1226       C  0.43231798  0.95177349  0.55915061     0.73590
Zr1227     Zr  0.44079589  0.96001748  0.49459788     2.77540
O1228       O  0.38092996  0.96185988  0.49676485    -0.97130
O1229       O  0.44143623  0.88956699  0.49336473    -0.77950
Zr1230     Zr  0.43911523  0.57739158  0.49359076     2.70070
O1231       O  0.37921969  0.58005074  0.49441438    -0.79190
O1232       O  0.44402561  0.64758419  0.49119222    -0.98280
Zr1233     Zr  0.48741612  0.51990650  0.53988688     2.21500
Zr1234     Zr  0.49121777  0.51882980  0.44952303     2.11130
O1235       O  0.44002188  0.51804583  0.47105586    -2.46960
O1236       O  0.43783804  0.51916540  0.51738159    -0.78990
O1237       O  0.49148195  0.95981549  0.47170519    -0.71180
O1238       O  0.48780767  0.57939485  0.51786763    -2.32140
O1239       O  0.48971146  0.96024807  0.51830144    -2.28350
O1240       O  0.48988885  0.57875195  0.47123675    -0.72940
H1241       H  0.05998459  0.52159222  0.46134592     0.79050
H1242       H  0.48718794  0.60131147  0.52908801     0.80140
H1243       H  0.42176262  0.51722654  0.45973978     0.82370
H1244       H  0.48992008  0.93860561  0.52962535     0.79970
H1245       H  0.01530914  0.65657743  0.50587771     0.43010
H1246       H  0.45122776  0.65279331  0.47386269     0.41980
H1247       H  0.37245064  0.55661554  0.50371530     0.41660
H1248       H  0.37465274  0.98250233  0.48501082     0.39590
H1249       H  0.46315013  0.88292094  0.48591310     0.42720
H1250       H  0.02338032  0.88510675  0.50825172     0.37510
H1251       H  0.10514853  0.49191537  0.50258856     0.43620
H1252       H  0.10564659  0.56542033  0.48144328     0.40040
H1253       H  0.37386686  0.93745229  0.48871769     0.44960
H1254       H  0.06140696  0.88499504  0.50294551     0.43680
H1255       H  0.10433514  0.60870643  0.49028171     0.43820
H1256       H  0.42105199  0.65714386  0.49214458     0.44170
C1257       C  0.41962145  0.93182519  0.40804356    -0.04740
C1258       C  0.43983848  0.92047785  0.38766535    -0.01860
C1259       C  0.42586238  0.90866813  0.36511243     0.03130
C1260       C  0.39138866  0.90505522  0.36294064    -0.04740
C1261       C  0.37100262  0.91446561  0.38362028    -0.01850
C1262       C  0.38498803  0.92859484  0.40590503     0.03130
C1263       C  0.47539894  0.92187704  0.38930318     0.37780
C1264       C  0.33558815  0.91013477  0.38185242     0.37770
C1265       C  0.36349449  0.94212806  0.42584522     0.36190
C1266       C  0.44727932  0.90306706  0.34360130     0.36190
N1267       N  0.34596808  0.95316229  0.44147217    -0.38630
N1268       N  0.46475653  0.89915996  0.32664240    -0.38630
N1269       N  0.30732776  0.90669825  0.38041459    -0.38070
N1270       N  0.00380920  0.92295645  0.38972068    -0.38080
C1271       C  0.07281112  0.93878125  0.41104354    -0.04740
C1272       C  0.07340073  0.89860805  0.40618871    -0.01860
C1273       C  0.08632394  0.88453442  0.38329370     0.03130
C1274       C  0.09559918  0.91084031  0.36416261    -0.04740
C1275       C  0.09532468  0.95120674  0.36971336    -0.01850
C1276       C  0.08725337  0.96416613  0.39378311     0.03130
C1277       C  0.05949081  0.87196163  0.42424746     0.37780
C1278       C  0.10101659  0.98018197  0.35063108     0.37770
C1279       C  0.09641015  0.50286490  0.40159376     0.36190
C1280       C  0.09004510  0.84310414  0.37969505     0.36190
N1281       N  0.10523725  0.53300487  0.40818828    -0.38630
N1282       N  0.09298129  0.81000422  0.37693565    -0.38630
N1283       N  0.10556722  0.00328497  0.33543257    -0.38070
N1284       N  0.04820826  0.85079456  0.43864552    -0.38080
C1285       C  0.38679551  0.62636194  0.36193530    -0.04740
C1286       C  0.40836631  0.59459181  0.36080628    -0.01860
C1287       C  0.42014738  0.57810604  0.38268375     0.03130
C1288       C  0.41469730  0.59661240  0.40615605    -0.04740
C1289       C  0.39385684  0.62989186  0.40701540    -0.01850
C1290       C  0.37931829  0.64396169  0.38497540     0.03130
C1291       C  0.41865160  0.57869943  0.33677091     0.37780
C1292       C  0.38693458  0.64990894  0.43025814     0.37770
C1293       C  0.35667135  0.67645636  0.38590228     0.36190
C1294       C  0.43582580  0.54050228  0.38031982     0.36190
N1295       N  0.33851579  0.70231178  0.38662744    -0.38630
N1296       N  0.44770745  0.51038448  0.37730061    -0.38630
N1297       N  0.38107083  0.66610559  0.44868446    -0.38070
N1298       N  0.42692738  0.56639591  0.31762928    -0.38080
C1299       C  0.09274809  0.63042617  0.36244953    -0.04740
C1300       C  0.09822263  0.64997759  0.38507488    -0.01860
C1301       C  0.08184475  0.63780551  0.40717557     0.03130
C1302       C  0.06046453  0.60517565  0.40679925    -0.04740
C1303       C  0.05439829  0.58687311  0.38325713    -0.01850
C1304       C  0.06956002  0.60039115  0.36144823     0.03130
C1305       C  0.12031709  0.68292744  0.38543803     0.37780
C1306       C  0.03425758  0.55231321  0.38066383     0.37770
C1307       C  0.06082009  0.58350192  0.33750315     0.36190
C1308       C  0.08655002  0.65968781  0.42991617     0.36190
N1309       N  0.05384151  0.57034212  0.31845093    -0.38630
N1310       N  0.09026048  0.67744513  0.44797288    -0.38630
N1311       N  0.01888554  0.52443412  0.37802952    -0.38070
N1312       N  0.13784326  0.70934384  0.38566976    -0.38080
C1313       C  0.14177823  0.86803430  0.12689422    -0.04740
C1314       C  0.12005204  0.85323456  0.10863273    -0.01860
C1315       C  0.13272417  0.83733006  0.08613091     0.03130
C1316       C  0.16676928  0.83924067  0.08079423    -0.04740
C1317       C  0.18767172  0.85791385  0.09768557    -0.01850
C1318       C  0.17588815  0.86969408  0.12116742     0.03130
C1319       C  0.08472324  0.85401362  0.11294344     0.37780
C1320       C  0.22144441  0.86601465  0.09062196     0.37770
C1321       C  0.19972818  0.88019838  0.13985951     0.36190
C1322       C  0.11100301  0.81748304  0.06910872     0.36190
N1323       N  0.21922273  0.88795795  0.15454374    -0.38630
N1324       N  0.09361795  0.80136314  0.05568572    -0.38630
N1325       N  0.24812479  0.87372570  0.08489755    -0.38070
N1326       N  0.05653051  0.85458162  0.11637981    -0.38080
C1327       C  0.31738709  0.83242458  0.08128479    -0.04740
C1328       C  0.32727978  0.80758422  0.10040683    -0.01860
C1329       C  0.33634186  0.82230512  0.12361436     0.03130
C1330       C  0.34250404  0.86241980  0.12658849    -0.04740
C1331       C  0.33706821  0.88737758  0.10612931    -0.01850
C1332       C  0.32361071  0.87258842  0.08379845     0.03130
C1333       C  0.33459571  0.76764708  0.09478023     0.37780
C1334       C  0.34544537  0.92811021  0.10786170     0.37770
C1335       C  0.31605788  0.89876868  0.06364461     0.36190
C1336       C  0.33807474  0.79564982  0.14442867     0.36190
N1337       N  0.30999750  0.91978591  0.04762588    -0.38630
N1338       N  0.33932719  0.77430094  0.16093802    -0.38630
N1339       N  0.35208333  0.96064381  0.10920959    -0.38070
N1340       N  0.34352258  0.73665371  0.09027672    -0.38080
C1341       C  0.16417945  0.66071225  0.07670921    -0.04740
C1342       C  0.18416030  0.64262496  0.09427497    -0.01860
C1343       C  0.17285472  0.63842222  0.11884624     0.03130
C1344       C  0.13895803  0.64316520  0.12478639    -0.04740
C1345       C  0.11729267  0.65403091  0.10548435    -0.01850
C1346       C  0.13020247  0.66495243  0.08189514     0.03130
C1347       C  0.21611872  0.62751533  0.08675850     0.37780
C1348       C  0.08200039  0.65456466  0.10986728     0.37770
C1349       C  0.10882966  0.68140834  0.06333156     0.36190
C1350       C  0.19712033  0.63527188  0.13819088     0.36190
N1351       N  0.09176064  0.69454176  0.04849362    -0.38630
N1352       N  0.21658154  0.63445451  0.15366694    -0.38630
N1353       N  0.05381269  0.65484402  0.11334468    -0.38070
N1354       N  0.24111305  0.61437744  0.08047365    -0.38080
C1355       C  0.31062621  0.66487113  0.08155277    -0.04740
C1356       C  0.34243530  0.64734374  0.08076488    -0.01860
C1357       C  0.35862710  0.63742449  0.10310714     0.03130
C1358       C  0.34319405  0.64412623  0.12631206    -0.04740
C1359       C  0.31152034  0.66045648  0.12737793    -0.01850
C1360       C  0.29534106  0.67094506  0.10550442     0.03130
C1361       C  0.36004591  0.64220450  0.05737818     0.37780
C1362       C  0.29620000  0.66875691  0.15147172     0.37770
C1363       C  0.26390326  0.69074941  0.10868267     0.36190
C1364       C  0.39171633  0.62159505  0.10237752     0.36190
N1365       N  0.23936419  0.70727880  0.11178287    -0.38630
N1366       N  0.41821435  0.60921971  0.10189172    -0.38630
N1367       N  0.28429598  0.67552402  0.17066798    -0.38070
N1368       N  0.37466211  0.63801967  0.03894192    -0.38080
C1369       C  0.41615404  0.93404297  0.58104552    -0.04740
C1370       C  0.42381157  0.89598773  0.58837010    -0.01860
C1371       C  0.41532792  0.88329004  0.61260643     0.03130
C1372       C  0.40097627  0.90950789  0.63001685    -0.04740
C1373       C  0.39287557  0.94744616  0.62218543    -0.01850
C1374       C  0.39877003  0.95860050  0.59750217     0.03130
C1375       C  0.44178863  0.87070661  0.57140473     0.37780
C1376       C  0.38073118  0.97627073  0.63981442     0.37770
C1377       C  0.38710100  0.49575888  0.58890273     0.36190
C1378       C  0.42177096  0.84352784  0.61960835     0.36190
N1379       N  0.37712996  0.52494781  0.58177984    -0.38630
N1380       N  0.42696270  0.81177072  0.62515971    -0.38630
N1381       N  0.37111938  0.99902897  0.65400675    -0.38070
N1382       N  0.45620151  0.85071646  0.55778072    -0.38080
C1383       C  0.39882536  0.62001219  0.62955349    -0.04740
C1384       C  0.37427840  0.61742811  0.61091578    -0.01860
C1385       C  0.38364555  0.61236662  0.58558043     0.03130
C1386       C  0.41723360  0.61247612  0.57881124    -0.04740
C1387       C  0.44024195  0.62522122  0.59614276    -0.01850
C1388       C  0.43229263  0.62484213  0.62154695     0.03130
C1389       C  0.33962940  0.61997183  0.61749944     0.37780
C1390       C  0.47229902  0.63849828  0.58749991     0.37770
C1391       C  0.45958538  0.62608006  0.63875092     0.36190
C1392       C  0.35905031  0.60630037  0.56667598     0.36190
N1393       N  0.48147016  0.62732070  0.65231941    -0.38630
N1394       N  0.33942139  0.60148521  0.55155921    -0.38630
N1395       N  0.99740594  0.65027748  0.58050418    -0.38070
N1396       N  0.31191735  0.62202516  0.62265511    -0.38080
C1397       C  0.08711300  0.91746806  0.62928994    -0.04740
C1398       C  0.09084102  0.95644657  0.62163730    -0.01860
C1399       C  0.08230572  0.96741993  0.59742336     0.03130
C1400       C  0.06528001  0.94165073  0.58190896    -0.04740
C1401       C  0.06289329  0.90235148  0.58870393    -0.01850
C1402       C  0.07479094  0.89000941  0.61203186     0.03130
C1403       C  0.10182358  0.98595700  0.63891740     0.37780
C1404       C  0.04857467  0.87471085  0.57161809     0.37770
C1405       C  0.07480736  0.84911466  0.61804110     0.36190
C1406       C  0.09486668  0.50324594  0.58724076     0.36190
N1407       N  0.07503882  0.81642820  0.62273554    -0.38630
N1408       N  0.10693284  0.53043792  0.57860210    -0.38630
N1409       N  0.03744414  0.85261283  0.55784421    -0.38070
N1410       N  0.11045152  0.00919294  0.65295709    -0.38080
C1411       C  0.09163205  0.60817316  0.63188261    -0.04740
C1412       C  0.06189860  0.58753952  0.63054655    -0.01860
C1413       C  0.04574599  0.58324906  0.60788093     0.03130
C1414       C  0.06070597  0.59631309  0.58500031    -0.04740
C1415       C  0.09107096  0.61671807  0.58647743    -0.01850
C1416       C  0.10622842  0.62285910  0.60989856     0.03130
C1417       C  0.04778446  0.56988652  0.65288579     0.37780
C1418       C  0.10758259  0.63016554  0.56408694     0.37770
C1419       C  0.13703435  0.64382636  0.61141881     0.36190
C1420       C  0.01362234  0.56446554  0.60909118     0.36190
N1421       N  0.16171641  0.66041808  0.61265871    -0.38630
N1422       N  0.48840606  0.54894133  0.61047068    -0.38630
N1423       N  0.12099788  0.64086265  0.54627737    -0.38070
N1424       N  0.03651238  0.55599469  0.67060125    -0.38080
C1425       C  0.13200742  0.63765987  0.86504524    -0.04740
C1426       C  0.14135730  0.61438940  0.88532999    -0.01860
C1427       C  0.15830875  0.63084630  0.90565113     0.03130
C1428       C  0.16621448  0.67087652  0.90587430    -0.04740
C1429       C  0.15714989  0.69383739  0.88527784    -0.01850
C1430       C  0.13976844  0.67751236  0.86532322     0.03130
C1431       C  0.13412347  0.57323401  0.88501541     0.37780
C1432       C  0.16685444  0.73412086  0.88352480     0.37770
C1433       C  0.13156465  0.70179545  0.84433110     0.36190
C1434       C  0.16981895  0.60575230  0.92529061     0.36190
N1435       N  0.12516864  0.72163686  0.82781556    -0.38630
N1436       N  0.17919012  0.58538743  0.94071212    -0.38630
N1437       N  0.17487994  0.76593387  0.88072278    -0.38070
N1438       N  0.12847808  0.54038104  0.88468223    -0.38080
C1439       C  0.32717806  0.83571880  0.91267529    -0.04740
C1440       C  0.32707971  0.87589698  0.90804604    -0.01860
C1441       C  0.34324421  0.89071060  0.88664920     0.03130
C1442       C  0.35868082  0.86522366  0.86928405    -0.04740
C1443       C  0.36092191  0.82533561  0.87533790    -0.01850
C1444       C  0.34708511  0.81145793  0.89774222     0.03130
C1445       C  0.31060597  0.90203076  0.92533514     0.37780
C1446       C  0.37527798  0.79762302  0.85805426     0.37770
C1447       C  0.35574721  0.77325581  0.90666123     0.36190
C1448       C  0.34374504  0.93219585  0.88247725     0.36190
N1449       N  0.36376869  0.74344967  0.91426661    -0.38630
N1450       N  0.34405466  0.96528790  0.87912703    -0.38630
N1451       N  0.38637940  0.77496507  0.84443995    -0.38070
N1452       N  0.29764810  0.92306052  0.93913867    -0.38080
C1453       C  0.16379863  0.83974114  0.91108959    -0.04740
C1454       C  0.13019782  0.83186063  0.90706761    -0.01860
C1455       C  0.11310949  0.85108106  0.88785513     0.03130
C1456       C  0.13008218  0.87749202  0.87184579    -0.04740
C1457       C  0.16050826  0.89199940  0.88102548    -0.01850
C1458       C  0.17869062  0.87051422  0.89826674     0.03130
C1459       C  0.11337008  0.80338424  0.92241931     0.37780
C1460       C  0.17033978  0.93187788  0.87679685     0.37770
C1461       C  0.21258333  0.88081450  0.90317068     0.36190
C1462       C  0.07755195  0.84817688  0.88789311     0.36190
N1463       N  0.23979305  0.88861150  0.90676704    -0.38630
N1464       N  0.04910465  0.84595329  0.88847528    -0.38630
N1465       N  0.17837862  0.96366339  0.87365828    -0.38070
N1466       N  0.09999451  0.78069093  0.93468535    -0.38080
C1467       C  0.31880150  0.66873339  0.90607831    -0.04740
C1468       C  0.33591174  0.63284863  0.90807043    -0.01860
C1469       C  0.35364988  0.61728230  0.88742113     0.03130
C1470       C  0.35497416  0.63730356  0.86464941    -0.04740
C1471       C  0.33766464  0.67240763  0.86228972    -0.01850
C1472       C  0.31935403  0.68778469  0.88249507     0.03130
C1473       C  0.33396691  0.61037204  0.93075986     0.37780
C1474       C  0.33751756  0.69204962  0.83841393     0.37770
C1475       C  0.30108697  0.72332647  0.87825732     0.36190
C1476       C  0.37001340  0.58006586  0.88935453     0.36190
N1477       N  0.28656615  0.75151335  0.87445187    -0.38630
N1478       N  0.38297684  0.55031068  0.89082934    -0.38630
N1479       N  0.33728269  0.70750761  0.81936355    -0.38070
N1480       N  0.33252336  0.59198369  0.94868912    -0.38080
O1481       O  0.92798629  0.18915613  0.79964393    -0.74690
O1482       O  0.95498372  0.14051872  0.77883451    -0.53600
C1483       C  0.93225394  0.15327079  0.79398276     0.79030
O1484       O  0.93318424  0.31799275  0.70492245    -0.59300
O1485       O  0.95891432  0.36589788  0.72680722    -0.52330
C1486       C  0.93827168  0.35355673  0.71044246     0.71050
O1487       O  0.92403098  0.19292963  0.71131486    -0.73850
O1488       O  0.95495429  0.14318445  0.72654952    -0.54420
C1489       C  0.93036968  0.15696010  0.71418377     0.77050
O1490       O  0.93067888  0.31632817  0.80297730    -0.59000
O1491       O  0.95567483  0.36509522  0.78116264    -0.52120
C1492       C  0.93423772  0.35212843  0.79715910     0.73640
Zr1493     Zr  0.95016050  0.25286268  0.79091432     2.54710
O1494       O  0.89026753  0.25438170  0.79105877    -0.79560
O1495       O  0.95590390  0.25063688  0.83593811    -0.92980
Zr1496     Zr  0.94961116  0.25435335  0.71789427     2.64680
O1497       O  0.88974827  0.25772695  0.71564934    -0.97940
O1498       O  0.95658460  0.24988942  0.67288443    -0.80000
O1499       O  0.94956287  0.21589579  0.75405454    -0.83350
O1500       O  0.94903179  0.29168623  0.75474586    -2.18060
O1501       O  0.56344090  0.31635054  0.80197912    -0.66740
O1502       O  0.53756056  0.36496960  0.78102745    -0.51310
C1503       C  0.55899836  0.35221526  0.79665835     0.72030
O1504       O  0.57356989  0.19366075  0.71444342    -0.59650
O1505       O  0.53825874  0.14457168  0.72477234    -0.51630
C1506       C  0.56507513  0.15800615  0.71465014     0.73830
O1507       O  0.56229744  0.31792937  0.70426375    -0.71050
O1508       O  0.53555135  0.36576399  0.72611257    -0.49720
C1509       C  0.55685670  0.35357822  0.70974346     0.75210
O1510       O  0.56473638  0.18803334  0.79869880    -0.66380
O1511       O  0.53721971  0.13970027  0.77849608    -0.53570
C1512       C  0.55971007  0.15215514  0.79343904     0.73590
Zr1513     Zr  0.54548455  0.25265263  0.78901669     2.77540
O1514       O  0.60489335  0.25312484  0.78188716    -0.97130
O1515       O  0.54786498  0.24982846  0.83422399    -0.77950
Zr1516     Zr  0.54395965  0.25391445  0.71624557     2.70070
O1517       O  0.60192269  0.25947930  0.70469702    -0.79190
O1518       O  0.53216590  0.24390204  0.67239214    -0.98280
Zr1519     Zr  0.49676484  0.17495704  0.75294862     2.21500
Zr1520     Zr  0.99714344  0.33162538  0.75442369     2.11130
O1521       O  0.54539730  0.29170880  0.75298134    -2.46960
O1522       O  0.54451474  0.21528115  0.75238598    -0.78990
O1523       O  0.99781252  0.29233185  0.79120527    -0.71180
O1524       O  0.49663419  0.21365443  0.71573654    -2.32140
O1525       O  0.49767404  0.21316446  0.79044162    -2.28350
O1526       O  0.99688873  0.29405339  0.71686000    -0.72940
H1527       H  0.92927896  0.30728104  0.75489900     0.79050
H1528       H  0.49642027  0.19733686  0.70109692     0.80140
H1529       H  0.56501416  0.30748586  0.75264006     0.82370
H1530       H  0.49779588  0.19673051  0.80494317     0.79970
H1531       H  0.95848662  0.22185878  0.66920562     0.43010
H1532       H  0.53227391  0.27025661  0.66519628     0.41980
H1533       H  0.61309233  0.26578545  0.72046839     0.41660
H1534       H  0.60846136  0.23606227  0.76724752     0.39590
H1535       H  0.53845708  0.27476238  0.84009340     0.42720
H1536       H  0.97987699  0.24841888  0.83864072     0.37510
H1537       H  0.88426363  0.24767332  0.77377840     0.43620
H1538       H  0.88327457  0.28010086  0.72621633     0.40040
H1539       H  0.61024967  0.27941515  0.77578721     0.44960
H1540       H  0.94695580  0.22512311  0.84093374     0.43680
H1541       H  0.88512776  0.26602483  0.69843213     0.43820
H1542       H  0.55229682  0.23146266  0.66549202     0.44170
C1543       C  0.87017405  0.11952434  0.84191235     0.03730
C1544       C  0.89892928  0.13502403  0.83120604    -0.12420
C1545       C  0.90813776  0.12658871  0.80630453     0.01230
C1546       C  0.88812611  0.10100876  0.79241989    -0.10950
C1547       C  0.85883728  0.08564587  0.80313607     0.03720
C1548       C  0.85092543  0.09428943  0.82800983    -0.10370
H1549       H  0.91247574  0.15662434  0.84159257     0.09310
H1550       H  0.89345280  0.09628915  0.77287385     0.06840
H1551       H  0.82799034  0.08386528  0.83609495     0.06690
O1552       O  0.80621278  0.07345942  0.69681873    -0.74690
O1553       O  0.84287515  0.03952648  0.72016836    -0.53600
C1554       C  0.83575951  0.06498605  0.70376942     0.79030
O1555       O  0.68990896  0.07374582  0.79412283    -0.59300
O1556       O  0.65106344  0.04264058  0.77125973    -0.52330
C1557       C  0.65971991  0.06652355  0.78831177     0.71050
O1558       O  0.80302282  0.07375979  0.79367009    -0.73850
O1559       O  0.84239682  0.04020373  0.77198230    -0.54420
C1560       C  0.83335254  0.06533775  0.78838342     0.77050
O1561       O  0.69304075  0.07716747  0.69597468    -0.59000
O1562       O  0.65441588  0.04505055  0.71930431    -0.52120
C1563       C  0.66302219  0.07038350  0.70305451     0.73640
Zr1564     Zr  0.74880963  0.05503862  0.70738253     2.54710
O1565       O  0.75034777  0.12543435  0.70560642    -0.79560
O1566       O  0.74968434  0.04913451  0.66222261    -0.92980
Zr1567     Zr  0.74663095  0.05670363  0.78180392     2.64680
O1568       O  0.74712182  0.12719481  0.78054706    -0.97940
O1569       O  0.74589775  0.05842782  0.82708952    -0.80000
O1570       O  0.77929181  0.05627343  0.74490525    -0.83350
O1571       O  0.71627501  0.05746680  0.74451696    -2.18060
O1572       O  0.68972934  0.42253424  0.69579758    -0.66740
O1573       O  0.65254798  0.45682468  0.71938519    -0.51310
C1574       C  0.66000128  0.43144786  0.70278762     0.72030
O1575       O  0.80066390  0.42252118  0.79487383    -0.59650
O1576       O  0.84057000  0.45506851  0.77335691    -0.51630
C1577       C  0.83107448  0.43046578  0.78983069     0.73830
O1578       O  0.68878644  0.42634851  0.79421181    -0.71050
O1579       O  0.65032729  0.45889263  0.77198719    -0.49720
C1580       C  0.65876175  0.43476411  0.78889758     0.75210
O1581       O  0.80330209  0.41826588  0.69799367    -0.66380
O1582       O  0.84033554  0.45115398  0.72180379    -0.53570
C1583       C  0.83281570  0.42570133  0.70545825     0.73590
Zr1584     Zr  0.74667429  0.44029512  0.70792136     2.77540
O1585       O  0.74529755  0.36978725  0.70698818    -0.97130
O1586       O  0.74927399  0.44460031  0.66275496    -0.77950
Zr1587     Zr  0.74533399  0.44163069  0.78209883     2.70070
O1588       O  0.74371161  0.37117531  0.78078807    -0.79190
O1589       O  0.74487726  0.44140187  0.82740407    -0.98280
Zr1590     Zr  0.80986295  0.49741994  0.74605104     2.21500
Zr1591     Zr  0.68381419  0.49988621  0.74507910     2.11130
O1592       O  0.71434224  0.44076558  0.74505466    -2.46960
O1593       O  0.77772834  0.43970098  0.74523439    -0.78990
O1594       O  0.71528480  0.99850094  0.70719542    -0.71180
O1595       O  0.77769581  0.49864206  0.78331070    -2.32140
O1596       O  0.78016907  0.49690701  0.70781506    -2.28350
O1597       O  0.71402917  0.49973612  0.78274122    -0.72940
H1598       H  0.70251605  0.08029531  0.74450198     0.79050
H1599       H  0.79142525  0.49858766  0.79784758     0.80140
H1600       H  0.69983124  0.41861087  0.74522354     0.82370
H1601       H  0.79516093  0.49620371  0.69372042     0.79970
H1602       H  0.75805127  0.03488837  0.83207252     0.43010
H1603       H  0.72812108  0.46099264  0.83221059     0.41980
H1604       H  0.75393140  0.36429097  0.76454200     0.41660
H1605       H  0.72624193  0.36269754  0.71770035     0.39590
H1606       H  0.73196570  0.46359020  0.65851019     0.42720
H1607       H  0.77067071  0.03576193  0.65817727     0.37510
H1608       H  0.75426031  0.13362102  0.72299046     0.43620
H1609       H  0.72692879  0.13432356  0.77150749     0.40040
H1610       H  0.73833235  0.36318317  0.68990620     0.44960
H1611       H  0.75301008  0.07595074  0.65623548     0.43680
H1612       H  0.74262770  0.13528045  0.79795606     0.43820
H1613       H  0.73483680  0.41627918  0.83205234     0.44170
C1614       C  0.61893413  0.38731430  0.84530992     0.03730
C1615       C  0.59019737  0.37205626  0.83416552    -0.12420
C1616       C  0.58228735  0.37905127  0.80901494     0.01230
C1617       C  0.60294747  0.40292751  0.79455837    -0.10950
C1618       C  0.63291658  0.41579849  0.80434363     0.03720
C1619       C  0.64070739  0.40674635  0.82897060    -0.10370
H1620       H  0.57494579  0.35138719  0.84361295     0.09310
H1621       H  0.59789656  0.40717804  0.77501462     0.06840
H1622       H  0.66543932  0.41298828  0.83444711     0.06690
C1623       C  0.87015895  0.37979819  0.84432912     0.03730
C1624       C  0.90139636  0.37044530  0.83446069    -0.12420
C1625       C  0.90959844  0.37803903  0.80935999     0.01230
C1626       C  0.88744236  0.39970316  0.79491649    -0.10950
C1627       C  0.85637409  0.41056586  0.80487821     0.03720
C1628       C  0.84797432  0.39972478  0.82929577    -0.10370
H1629       H  0.91832711  0.35385126  0.84563144     0.09310
H1630       H  0.89291653  0.40470023  0.77541901     0.06840
H1631       H  0.82353348  0.40609072  0.83656317     0.06690
C1632       C  0.61922057  0.11983993  0.84172102     0.03730
C1633       C  0.64043801  0.09635590  0.82769558    -0.12420
C1634       C  0.63365744  0.08689435  0.80291206     0.01230
C1635       C  0.60435435  0.10090323  0.79206321    -0.10950
C1636       C  0.58271734  0.12507596  0.80594025     0.03720
C1637       C  0.58985906  0.13283138  0.83108292    -0.10370
H1638       H  0.66359304  0.08747417  0.83573956     0.09310
H1639       H  0.60016883  0.09630301  0.77242551     0.06840
H1640       H  0.57440184  0.15282792  0.84158740     0.06690
C1641       C  0.60458651  0.11639340  0.65714295     0.03730
C1642       C  0.58372314  0.13673348  0.67352245    -0.12420
C1643       C  0.58662715  0.13316689  0.69923407     0.01230
C1644       C  0.61312062  0.11208054  0.70882877    -0.10950
C1645       C  0.63613841  0.09393327  0.69257756     0.03720
C1646       C  0.63162792  0.09604210  0.66666433    -0.10370
H1647       H  0.56319721  0.15299095  0.66609780     0.09310
H1648       H  0.61637244  0.11066087  0.72876597     0.06840
H1649       H  0.64751048  0.07959008  0.65418026     0.06690
C1650       C  0.59544081  0.40613345  0.65536036     0.03730
C1651       C  0.57173516  0.38780815  0.67060177    -0.12420
C1652       C  0.57773388  0.38124476  0.69589319     0.01230
C1653       C  0.60734772  0.39437247  0.70617925    -0.10950
C1654       C  0.63160441  0.41212786  0.69112438     0.03720
C1655       C  0.62599291  0.41651985  0.66562734    -0.10370
H1656       H  0.54857906  0.37845364  0.66278606     0.09310
H1657       H  0.61194658  0.38982421  0.72577154     0.06840
H1658       H  0.64452738  0.43053694  0.65411943     0.06690
C1659       C  0.89041353  0.11774310  0.65697388     0.03730
C1660       C  0.90809244  0.14049629  0.67369203    -0.12420
C1661       C  0.90923761  0.13177444  0.69901668     0.01230
C1662       C  0.88645040  0.10531838  0.70886939    -0.10950
C1663       C  0.86356272  0.08724445  0.69298373     0.03720
C1664       C  0.86694996  0.09175100  0.66699625    -0.10370
H1665       H  0.92250210  0.16458796  0.66673630     0.09310
H1666       H  0.88476697  0.10122935  0.72878835     0.06840
H1667       H  0.85166469  0.07456151  0.65489549     0.06690
C1668       C  0.89521482  0.39854606  0.65656510     0.03730
C1669       C  0.92114172  0.38478499  0.67125531    -0.12420
C1670       C  0.91688489  0.38048481  0.69706229     0.01230
C1671       C  0.88719710  0.39243544  0.70831158    -0.10950
C1672       C  0.86101102  0.40571519  0.69373870     0.03720
C1673       C  0.86451157  0.40625523  0.66788435    -0.10370
H1674       H  0.94450264  0.37693025  0.66266533     0.09310
H1675       H  0.88394803  0.38997535  0.72828757     0.06840
H1676       H  0.84430936  0.41666177  0.65673313     0.06690
O1677       O  0.81153007  0.32825388  0.95504348    -0.74690
O1678       O  0.78370664  0.29413218  0.92552704    -0.53600
C1679       C  0.80596515  0.31843755  0.93241823     0.79030
O1680       O  0.80381746  0.17177682  0.03638155    -0.59300
O1681       O  0.77476879  0.20978636  0.06314902    -0.52330
C1682       C  0.79544817  0.18270770  0.05868985     0.71050
O1683       O  0.80884924  0.17771517  0.95050585    -0.73850
O1684       O  0.77722941  0.21038872  0.92308419    -0.54420
C1685       C  0.80041036  0.18646510  0.92806032     0.77050
O1686       O  0.80709369  0.32660236  0.03769855    -0.59000
O1687       O  0.77646493  0.29064274  0.06491890    -0.52120
C1688       C  0.79911266  0.31570381  0.05982108     0.73640
Zr1689     Zr  0.78981677  0.30983229  0.99565058     2.54710
O1690       O  0.84969687  0.31010039  0.99700063    -0.79560
O1691       O  0.78563518  0.38015568  0.99694836    -0.92980
Zr1692     Zr  0.79034976  0.19348767  0.99351406     2.64680
O1693       O  0.85021531  0.19695014  0.99369383    -0.97940
O1694       O  0.78951826  0.12300984  0.99229928    -0.80000
O1695       O  0.79128384  0.25264437  0.97087156    -0.83350
O1696       O  0.78990109  0.25085276  0.01805832    -2.18060
O1697       O  0.67372623  0.32797322  0.03710322    -0.66740
O1698       O  0.70349800  0.29264200  0.06470925    -0.51310
C1699       C  0.68188788  0.31838117  0.05933443     0.72030
O1700       O  0.67545867  0.17883089  0.94946246    -0.59650
O1701       O  0.70712650  0.21317393  0.92206969    -0.51630
C1702       C  0.68419051  0.18866434  0.92721034     0.73830
O1703       O  0.67246863  0.17327370  0.03333701    -0.71050
O1704       O  0.70276900  0.20611222  0.06205483    -0.49720
C1705       C  0.68064135  0.18131311  0.05583241     0.75210
O1706       O  0.67276241  0.32595577  0.95337435    -0.66380
O1707       O  0.70656224  0.29762626  0.92425520    -0.53570
C1708       C  0.68217681  0.31946892  0.93082863     0.73590
Zr1709     Zr  0.69140200  0.30959655  0.99478930     2.77540
O1710       O  0.63141230  0.30942857  0.99500154    -0.97130
O1711       O  0.69423166  0.37999062  0.99405275    -0.77950
Zr1712     Zr  0.69188686  0.19390274  0.99216703     2.70070
O1713       O  0.63199169  0.19239864  0.99149834    -0.79190
O1714       O  0.69696286  0.12367739  0.99063966    -0.98280
Zr1715     Zr  0.74262936  0.25403312  0.94678851     2.21500
Zr1716     Zr  0.73915200  0.25081380  0.04050510     2.11130
O1717       O  0.68991161  0.25080908  0.01720412    -2.46960
O1718       O  0.69214584  0.25284007  0.96964943    -0.78990
O1719       O  0.73982360  0.31048667  0.01905661    -0.71180
O1720       O  0.74197990  0.19422164  0.96894322    -2.32140
O1721       O  0.74145117  0.31179160  0.97113942    -2.28350
O1722       O  0.74010695  0.19256500  0.01673487    -0.72940
H1723       H  0.80847489  0.25039205  0.02909182     0.79050
H1724       H  0.74222261  0.17240421  0.95763304     0.80140
H1725       H  0.67068866  0.25035287  0.02797045     0.82370
H1726       H  0.74177079  0.33436507  0.96058051     0.79970
H1727       H  0.77117496  0.11645901  0.98108812     0.43010
H1728       H  0.71031177  0.11704376  0.00530636     0.41980
H1729       H  0.62561229  0.21871111  0.98609596     0.41660
H1730       H  0.62505876  0.28976677  0.00751739     0.39590
H1731       H  0.71015262  0.38669324  0.00718163     0.42720
H1732       H  0.77085037  0.38690210  0.98313186     0.37510
H1733       H  0.85621418  0.28396810  0.99106990     0.43620
H1734       H  0.85579281  0.20565826  0.01069239     0.40040
H1735       H  0.62497494  0.33450914  0.00263745     0.44960
H1736       H  0.80762390  0.38937573  0.99145336     0.43680
H1737       H  0.85751830  0.16960468  0.99284853     0.43820
H1738       H  0.67460164  0.11406377  0.99479419     0.44170
C1739       C  0.62956111  0.37910834  0.15241511     0.03730
C1740       C  0.64031568  0.41326358  0.16418914    -0.12420
C1741       C  0.63423212  0.41973911  0.18974054     0.01230
C1742       C  0.61361967  0.39430262  0.20280700    -0.10950
C1743       C  0.60146741  0.36123721  0.19087102     0.03720
C1744       C  0.61011315  0.35318250  0.16613991    -0.10370
H1745       H  0.65600036  0.43327760  0.15406139     0.09310
H1746       H  0.60842813  0.39904078  0.22241449     0.06840
H1747       H  0.60179019  0.32640427  0.15771516     0.06690
C1748       C  0.85944256  0.13522370  0.15019950     0.03730
C1749       C  0.87985697  0.16296905  0.16124579    -0.12420
C1750       C  0.88521908  0.16229553  0.18699706     0.01230
C1751       C  0.87039033  0.13337787  0.20168500    -0.10950
C1752       C  0.85053509  0.10510004  0.19058128     0.03720
C1753       C  0.84614331  0.10549749  0.16478248    -0.10370
H1754       H  0.88982804  0.18642441  0.15012704     0.09310
H1755       H  0.87341693  0.13367278  0.22167674     0.06840
H1756       H  0.82871910  0.08560009  0.15648370     0.06690
C1757       C  0.85505587  0.37725563  0.15092083     0.03730
C1758       C  0.83918637  0.40770823  0.16357139    -0.12420
C1759       C  0.84711979  0.41704032  0.18840035     0.01230
C1760       C  0.87024141  0.39433534  0.20086859    -0.10950
C1761       C  0.88587009  0.36365167  0.18828692     0.03720
C1762       C  0.88010885  0.35723786  0.16307455    -0.10370
H1763       H  0.81898279  0.42250754  0.15467590     0.09310
H1764       H  0.87484079  0.39921669  0.22045113     0.06840
H1765       H  0.89351869  0.33441989  0.15339364     0.06690
O1766       O  0.68742970  0.43913930  0.19762603    -0.74690
O1767       O  0.64653715  0.46836603  0.22048901    -0.53600
C1768       C  0.65710685  0.44474017  0.20344598     0.79030
O1769       O  0.79600096  0.43036552  0.29339080    -0.59300
O1770       O  0.83632496  0.46576830  0.27396963    -0.52330
C1771       C  0.82613476  0.43834167  0.28838415     0.71050
O1772       O  0.68898147  0.42548128  0.29124960    -0.73850
O1773       O  0.64850662  0.46280128  0.27417107    -0.54420
C1774       C  0.65893376  0.43388125  0.28711118     0.77050
O1775       O  0.79449720  0.43808993  0.19688089    -0.59000
O1776       O  0.83550534  0.46649063  0.21921140    -0.52120
C1777       C  0.82472469  0.44283952  0.20240304     0.73640
Zr1778     Zr  0.74132934  0.45972838  0.20984639     2.54710
O1779       O  0.74122606  0.38947127  0.20606634    -0.79560
O1780       O  0.74288336  0.47465415  0.16554902    -0.92980
Zr1781     Zr  0.74184419  0.45311802  0.28291498     2.64680
O1782       O  0.74228371  0.38250670  0.28297419    -0.97940
O1783       O  0.74002703  0.45786748  0.32813463    -0.80000
O1784       O  0.70951145  0.45576589  0.24663120    -0.83350
O1785       O  0.77365466  0.45532085  0.24597485    -2.18060
O1786       O  0.79662024  0.09091940  0.20151172    -0.66740
O1787       O  0.83721899  0.05648807  0.22061308    -0.51310
C1788       C  0.82693644  0.08259529  0.20547451     0.72030
O1789       O  0.68822614  0.09245572  0.29590572    -0.59650
O1790       O  0.64760235  0.06073404  0.27497425    -0.51630
C1791       C  0.65818532  0.08731849  0.28989752     0.73830
O1792       O  0.79406998  0.09066968  0.29658457    -0.71050
O1793       O  0.83481787  0.06094686  0.27371075    -0.49720
C1794       C  0.82404048  0.08646334  0.28953875     0.75210
O1795       O  0.68752971  0.09056354  0.20124328    -0.66240
O1796       O  0.64656713  0.05740284  0.22158507    -0.53570
C1797       C  0.65715116  0.08285159  0.20584200     0.73590
Zr1798     Zr  0.74175613  0.07109940  0.21398086     2.77540
O1799       O  0.73964645  0.14133786  0.21840159    -0.97130
O1800       O  0.74460687  0.06630573  0.16883916    -0.77950
Zr1801     Zr  0.74115083  0.06409162  0.28731576     2.70070
O1802       O  0.74174364  0.13188397  0.29991127    -0.79190
O1803       O  0.73956881  0.04483836  0.33082571    -0.98280
Zr1804     Zr  0.67589906  0.01226517  0.24870024     2.21500
Zr1805     Zr  0.80712136  0.01207511  0.24788581     2.11130
O1806       O  0.77322854  0.06866774  0.25030667    -2.46960
O1807       O  0.70951744  0.06864162  0.25082513    -0.78990
O1808       O  0.77500669  0.01520988  0.21117993    -0.71180
O1809       O  0.70738357  0.00853256  0.28609835    -2.32140
O1810       O  0.70828146  0.01547579  0.21147708    -2.28350
O1811       O  0.77552917  0.00880352  0.28576857    -0.72940
H1812       H  0.78700989  0.43219376  0.24502146     0.79050
H1813       H  0.69320968  0.00734910  0.30065138     0.80140
H1814       H  0.78621938  0.09205983  0.25043570     0.82370
H1815       H  0.69468499  0.01636833  0.19688253     0.79970
H1816       H  0.71632226  0.45713883  0.33265551     0.43010
H1817       H  0.76204500  0.05014200  0.33689226     0.41980
H1818       H  0.74269041  0.14636993  0.28405885     0.41660
H1819       H  0.76269813  0.14950860  0.22106831     0.39590
H1820       H  0.76546561  0.05247822  0.16508459     0.42720
H1821       H  0.72020239  0.47027098  0.15963480     0.37510
H1822       H  0.73546148  0.38022766  0.22297604     0.43620
H1823       H  0.76035595  0.37498719  0.27138780     0.40040
H1824       H  0.73422605  0.15105524  0.20166867     0.44960
H1825       H  0.75615573  0.45375354  0.15771279     0.43680
H1826       H  0.75021376  0.37523154  0.29965949     0.43820
H1827       H  0.72555805  0.06463153  0.33913712     0.44170
O1828       O  0.54703827  0.34554914  0.19823365    -0.74690
O1829       O  0.58660424  0.30868919  0.21668001    -0.53600
C1830       C  0.57698290  0.33694991  0.20302543     0.79030
O1831       O  0.93498160  0.33305715  0.29329546    -0.59300
O1832       O  0.89520352  0.30650287  0.26893666    -0.52330
C1833       C  0.90498284  0.32860271  0.28687715     0.71050
O1834       O  0.54136312  0.33772272  0.29334088    -0.73850
O1835       O  0.58273000  0.30989004  0.27027503    -0.54420
C1836       C  0.57163034  0.33337267  0.28727494     0.77050
O1837       O  0.93962999  0.34638580  0.19579909    -0.59000
O1838       O  0.89877615  0.31087144  0.21461209    -0.52120
C1839       C  0.90943652  0.33875447  0.20067716     0.73640
Zr1840     Zr  0.49251243  0.32028717  0.20586631     2.54710
O1841       O  0.49287292  0.39044397  0.20165974    -0.79560
O1842       O  0.99440419  0.31083466  0.16095429    -0.92980
Zr1843     Zr  0.48923616  0.31677330  0.27880707     2.64680
O1844       O  0.48876520  0.38659318  0.27200213    -0.97940
O1845       O  0.98884066  0.31776184  0.32409059    -0.80000
O1846       O  0.52308966  0.31977027  0.24292713    -0.83350
O1847       O  0.95866590  0.31951124  0.24212498    -2.18060
O1848       O  0.93866027  0.18457860  0.19159934    -0.66740
O1849       O  0.89790435  0.21505903  0.21406784    -0.51310
C1850       C  0.90848201  0.18962400  0.19813579     0.72030
O1851       O  0.54499746  0.18419508  0.28821783    -0.59650
O1852       O  0.58583617  0.21906483  0.26908576    -0.51630
C1853       C  0.57532478  0.19276156  0.28409268     0.73830
O1854       O  0.93572043  0.18627512  0.28919576    -0.71050
O1855       O  0.89547167  0.21816201  0.26806590    -0.49720
C1856       C  0.90555154  0.19353587  0.28428086     0.75210
O1857       O  0.54703543  0.18481740  0.19322515    -0.66380
O1858       O  0.58605801  0.21604345  0.21619840    -0.53570
C1859       C  0.57675012  0.19057272  0.20010142     0.73590
Zr1860     Zr  0.99242217  0.20837224  0.20302128     2.77540
O1861       O  0.99438350  0.13818273  0.19811341    -0.97130
O1862       O  0.99419568  0.21987015  0.15837197    -0.77950
Zr1863     Zr  0.99048864  0.20421867  0.27630311     2.70070
O1864       O  0.98931965  0.13387944  0.27309043    -0.79190
O1865       O  0.99112700  0.20355571  0.32159439    -0.98280
Zr1866     Zr  0.55609578  0.26296905  0.24222390     2.21500
Zr1867     Zr  0.92578603  0.26242051  0.24072956     2.11130
O1868       O  0.95935872  0.20535718  0.23956589    -2.46960
O1869       O  0.52352188  0.20568575  0.23996320    -0.78990
O1870       O  0.95873366  0.26443756  0.20342816    -0.71180
O1871       O  0.52262285  0.26082827  0.27894636    -2.32140
O1872       O  0.52598380  0.26436837  0.20422547    -2.28350
O1873       O  0.95693303  0.26016215  0.27804381    -0.72940
H1874       H  0.94515350  0.34251953  0.24290845     0.79050
H1875       H  0.53585416  0.26036080  0.29374567     0.80140
H1876       H  0.94601492  0.18222396  0.23932010     0.82370
H1877       H  0.54067450  0.26505351  0.18995365     0.79970
H1878       H  0.49934298  0.29304128  0.32886759     0.43010
H1879       H  0.97243737  0.22030792  0.32678010     0.41980
H1880       H  0.50048748  0.12808460  0.25702153     0.41660
H1881       H  0.97680674  0.12816303  0.20927918     0.39590
H1882       H  0.97162489  0.22837914  0.15426275     0.42720
H1883       H  0.51813917  0.31102787  0.15650514     0.37510
H1884       H  0.49173586  0.40027414  0.21897526     0.43620
H1885       H  0.96594206  0.39512485  0.27570624     0.40040
H1886       H  0.98636737  0.13312417  0.18108879     0.44960
H1887       H  0.48579733  0.33536184  0.15410216     0.43680
H1888       H  0.50217127  0.39785163  0.28546161     0.43820
H1889       H  0.98412278  0.17702557  0.32616956     0.44170
C1890       C  0.62710699  0.13803211  0.15117721     0.03730
C1891       C  0.63852163  0.10674667  0.16536106    -0.12420
C1892       C  0.63399596  0.10593205  0.19128602     0.01230
C1893       C  0.61464968  0.13445244  0.20290365    -0.10950
C1894       C  0.60111581  0.16444762  0.18878289     0.03720
C1895       C  0.60782706  0.16657208  0.16313092    -0.10370
H1896       H  0.65369703  0.08462718  0.15655439     0.09310
H1897       H  0.61080751  0.13389463  0.22286982     0.06840
H1898       H  0.59856222  0.19096290  0.15270791     0.06690
C1899       C  0.60919575  0.14155754  0.33881001     0.03730
C1900       C  0.59423332  0.17000884  0.32447557    -0.12420
C1901       C  0.59878260  0.17052730  0.29859817     0.01230
C1902       C  0.61928850  0.14297866  0.28700474    -0.10950
C1903       C  0.63508528  0.11490270  0.30136944     0.03720
C1904       C  0.63078171  0.11503277  0.32730012    -0.10370
H1905       H  0.57585888  0.18877706  0.33307242     0.09310
H1906       H  0.62202843  0.14254396  0.26694419     0.06840
H1907       H  0.64178246  0.09223318  0.33825689     0.06690
C1908       C  0.87160339  0.13889830  0.33845416     0.03730
C1909       C  0.85034921  0.11303137  0.32668962    -0.12420
C1910       C  0.84663676  0.11397967  0.30090252     0.01230
C1911       C  0.86193928  0.14323335  0.28690089    -0.10950
C1912       C  0.88193063  0.17062512  0.29878774     0.03720
C1913       C  0.88654068  0.16834059  0.32462087    -0.10370
H1914       H  0.83923414  0.08968613  0.33731438     0.09310
H1915       H  0.85937493  0.14371197  0.26687189     0.06840
H1916       H  0.90469607  0.18668703  0.33344464     0.06690
C1917       C  0.60531824  0.39685294  0.33855083     0.03730
C1918       C  0.58676187  0.36884960  0.32582418    -0.12420
C1919       C  0.59402274  0.35915264  0.30076278     0.01230
C1920       C  0.61775640  0.38057731  0.28769106    -0.10950
C1921       C  0.63525238  0.40948535  0.30005559     0.03720
C1922       C  0.63135680  0.41460689  0.32568107    -0.10370
H1923       H  0.56573273  0.35566105  0.33502210     0.09310
H1924       H  0.62163722  0.37593120  0.26791549     0.06840
H1925       H  0.64733510  0.43476291  0.33522571     0.06690
C1926       C  0.87723935  0.39386053  0.33841613     0.03730
C1927       C  0.85774596  0.42019082  0.32540966    -0.12420
C1928       C  0.84995527  0.41326376  0.30047951     0.01230
C1929       C  0.86199084  0.38006294  0.28818081    -0.10950
C1930       C  0.88184852  0.35366682  0.30088498     0.03720
C1931       C  0.88783264  0.35983058  0.32634540    -0.10370
H1932       H  0.84929030  0.44657113  0.33446240     0.09310
H1933       H  0.85731670  0.37594368  0.26853840     0.06840
H1934       H  0.90404791  0.34022408  0.33607469     0.06690
O1935       O  0.55668248  0.44671258  0.53815684    -0.74690
O1936       O  0.52410245  0.48142659  0.56503108    -0.53600
C1937       C  0.54750384  0.45730525  0.56017576     0.79030
O1938       O  0.55556256  0.09731563  0.45211175    -0.59300
O1939       O  0.52088134  0.06583329  0.42646554    -0.52330
C1940       C  0.54466597  0.08905265  0.43016636     0.71050
O1941       O  0.55487649  0.09702173  0.53899737    -0.73850
O1942       O  0.52445998  0.05712133  0.56298952    -0.54420
C1943       C  0.54598146  0.08342744  0.56051722     0.77050
O1944       O  0.55988736  0.44430420  0.45429763    -0.59000
O1945       O  0.53143720  0.48060599  0.42648341    -0.52120
C1946       C  0.55347220  0.45540800  0.43209354     0.73640
Zr1947     Zr  0.54029357  0.46284880  0.49571602     2.54710
O1948       O  0.60016243  0.46551851  0.49642780    -0.79560
O1949       O  0.54010359  0.39234250  0.49554826    -0.92980
Zr1950     Zr  0.53875799  0.08019669  0.49543364     2.64680
O1951       O  0.59869915  0.08207269  0.49560663    -0.97940
O1952       O  0.53517337  0.15062213  0.49569550    -0.80000
O1953       O  0.53872406  0.02163205  0.51864080    -0.83350
O1954       O  0.54093406  0.02114988  0.47228155    -2.18060
O1955       O  0.92543245  0.44119581  0.45214724    -0.66740
O1956       O  0.95726713  0.47617430  0.42528541    -0.51310
C1957       C  0.93497792  0.45080664  0.43004471     0.72030
O1958       O  0.92113445  0.09917766  0.53497153    -0.59650
O1959       O  0.95184447  0.06452448  0.56228410    -0.51630
C1960       C  0.93034793  0.09057191  0.55707177     0.73830
O1961       O  0.92136184  0.09066805  0.45082065    -0.71050
O1962       O  0.95653569  0.05907386  0.42477333    -0.49720
C1963       C  0.93180991  0.08139158  0.42881981     0.75210
O1964       O  0.92525076  0.44003442  0.53704549    -0.66380
O1965       O  0.95252651  0.47901515  0.56425890    -0.53570
C1966       C  0.93231811  0.45177369  0.55915072     0.73590
Zr1967     Zr  0.94079595  0.46001763  0.49459798     2.77540
O1968       O  0.88093002  0.46186013  0.49676499    -0.97130
O1969       O  0.94143622  0.38956714  0.49336487    -0.77950
Zr1970     Zr  0.93911520  0.07739144  0.49359078     2.70070
O1971       O  0.87921966  0.08005048  0.49441448    -0.79190
O1972       O  0.94402545  0.14758407  0.49119225    -0.98280
Zr1973     Zr  0.98741609  0.01990620  0.53988680     2.21500
Zr1974     Zr  0.99121771  0.01882973  0.44952297     2.11130
O1975       O  0.94002183  0.01804574  0.47105582    -2.46960
O1976       O  0.93783799  0.01916520  0.51738154    -0.78990
O1977       O  0.99148202  0.45981560  0.47170530    -0.71180
O1978       O  0.98780767  0.07939461  0.51786761    -2.32140
O1979       O  0.98971151  0.46024831  0.51830155    -2.28350
O1980       O  0.98988882  0.07875184  0.47123675    -0.72940
H1981       H  0.55998453  0.02159209  0.46134585     0.79050
H1982       H  0.98718797  0.10131121  0.52908802     0.80140
H1983       H  0.92176256  0.01722648  0.45973974     0.82370
H1984       H  0.98992014  0.43860587  0.52962548     0.79970
H1985       H  0.51530849  0.15657715  0.50587711     0.43010
H1986       H  0.95122762  0.15279321  0.47386273     0.41980
H1987       H  0.87245067  0.05661533  0.50371548     0.41660
H1988       H  0.87465281  0.48250250  0.48501090     0.39590
H1989       H  0.96315010  0.38292105  0.48591322     0.42720
H1990       H  0.52338027  0.38510698  0.50825176     0.37510
H1991       H  0.60514847  0.99191512  0.50258858     0.43620
H1992       H  0.60564656  0.06542013  0.48144321     0.40040
H1993       H  0.87386689  0.43745250  0.48871789     0.44960
H1994       H  0.56140694  0.38499524  0.50294569     0.43680
H1995       H  0.60433511  0.10870626  0.49028160     0.43820
H1996       H  0.92105182  0.15714368  0.49214459     0.44170
C1997       C  0.91962151  0.43182518  0.40804368    -0.04740
C1998       C  0.93983853  0.42047784  0.38766545    -0.01860
C1999       C  0.92586243  0.40866819  0.36511253     0.03130
C2000       C  0.89138871  0.40505530  0.36294072    -0.04740
C2001       C  0.87100267  0.41446565  0.38362037    -0.01850
C2002       C  0.88498809  0.42859484  0.40590514     0.03130
C2003       C  0.97539900  0.42187695  0.38930331     0.37780
C2004       C  0.83558820  0.41013483  0.38185252     0.37770
C2005       C  0.86349455  0.44212801  0.42584535     0.36190
C2006       C  0.94727937  0.40306715  0.34360139     0.36190
N2007       N  0.84596814  0.45316220  0.44147231    -0.38630
N2008       N  0.96475658  0.39916008  0.32664249    -0.38630
N2009       N  0.80732781  0.40669831  0.38041468    -0.38070
N2010       N  0.50380925  0.42295632  0.38972083    -0.38080
C2011       C  0.57281122  0.43878131  0.41104366    -0.04740
C2012       C  0.57340085  0.39860810  0.40618884    -0.01860
C2013       C  0.58632402  0.38453447  0.38329382     0.03130
C2014       C  0.59559922  0.41084036  0.36416271    -0.04740
C2015       C  0.59532472  0.45120678  0.36971346    -0.01850
C2016       C  0.58725344  0.46416619  0.39378322     0.03130
C2017       C  0.55949099  0.37196168  0.42424762     0.37780
C2018       C  0.60101659  0.48018201  0.35063117     0.37770
C2019       C  0.59641008  0.00286485  0.40159367     0.36190
C2020       C  0.59004518  0.34310419  0.37969517     0.36190
N2021       N  0.60523719  0.03300481  0.40818820    -0.38630
N2022       N  0.59298138  0.31000427  0.37693577    -0.38630
N2023       N  0.60556719  0.50328501  0.33543265    -0.38070
N2024       N  0.54820849  0.35079462  0.43864571    -0.38080
C2025       C  0.88679543  0.12636198  0.36193534    -0.04740
C2026       C  0.90836626  0.09459189  0.36080630    -0.01860
C2027       C  0.92014732  0.07810608  0.38268377     0.03130
C2028       C  0.91469721  0.09661240  0.40615607    -0.04740
C2029       C  0.89385672  0.12989184  0.40701544    -0.01850
C2030       C  0.87931817  0.14396168  0.38497545     0.03130
C2031       C  0.91865159  0.07869958  0.33677093     0.37780
C2032       C  0.88693442  0.14990886  0.43025820     0.37770
C2033       C  0.85667120  0.17645632  0.38590234     0.36190
C2034       C  0.93582573  0.04050234  0.38031980     0.36190
N2035       N  0.83851561  0.20231172  0.38662752    -0.38630
N2036       N  0.94770738  0.01038454  0.37730057    -0.38630
N2037       N  0.88107064  0.16610546  0.44868453    -0.38070
N2038       N  0.92692741  0.06639612  0.31762929    -0.38080
C2039       C  0.59274808  0.13042613  0.36244955    -0.04740
C2040       C  0.59822261  0.14997754  0.38507491    -0.01860
C2041       C  0.58184471  0.13780546  0.40717558     0.03130
C2042       C  0.56046448  0.10517561  0.40679925    -0.04740
C2043       C  0.55439824  0.08687309  0.38325712    -0.01850
C2044       C  0.56956000  0.10039113  0.36144823     0.03130
C2045       C  0.62031708  0.18292737  0.38543806     0.37780
C2046       C  0.53425750  0.05231322  0.38066381     0.37770
C2047       C  0.56082008  0.08350190  0.33750315     0.36190
C2048       C  0.58654996  0.15968775  0.42991619     0.36190
N2049       N  0.55384150  0.07034211  0.31845093    -0.38630
N2050       N  0.59026040  0.17744506  0.44797290    -0.38630
N2051       N  0.51888544  0.02443415  0.37802949    -0.38070
N2052       N  0.63784326  0.20934378  0.38566981    -0.38080
C2053       C  0.64177821  0.36803431  0.12689425    -0.04740
C2054       C  0.62005202  0.35323459  0.10863276    -0.01860
C2055       C  0.63272416  0.33733011  0.08613093     0.03130
C2056       C  0.66676927  0.33924072  0.08079425    -0.04740
C2057       C  0.68767170  0.35791388  0.09768560    -0.01850
C2058       C  0.67588814  0.36969409  0.12116746     0.03130
C2059       C  0.58472322  0.35401365  0.11294346     0.37780
C2060       C  0.72144441  0.36601466  0.09062200     0.37770
C2061       C  0.69972816  0.38019836  0.13985956     0.36190
C2062       C  0.61100299  0.31748310  0.06910874     0.36190
N2063       N  0.71922270  0.38795790  0.15454379    -0.38630
N2064       N  0.59361793  0.30136322  0.05568573    -0.38630
N2065       N  0.74812479  0.37372570  0.08489761    -0.38070
N2066       N  0.55653050  0.35458164  0.11637984    -0.38080
C2067       C  0.81738710  0.33242459  0.08128481    -0.04740
C2068       C  0.82727981  0.30758423  0.10040684    -0.01860
C2069       C  0.83634190  0.32230512  0.12361437     0.03130
C2070       C  0.84250407  0.36241980  0.12658851    -0.04740
C2071       C  0.83706823  0.38737759  0.10612933    -0.01850
C2072       C  0.82361072  0.37258844  0.08379848     0.03130
C2073       C  0.83459575  0.26764710  0.09478022     0.37780
C2074       C  0.84544538  0.42811021  0.10786173     0.37770
C2075       C  0.81605787  0.39876870  0.06364465     0.36190
C2076       C  0.83807479  0.29564980  0.14442868     0.36190
N2077       N  0.80999748  0.41978594  0.04762592    -0.38630
N2078       N  0.83932726  0.27430091  0.16093802    -0.38630
N2079       N  0.85208334  0.46064382  0.10920962    -0.38070
N2080       N  0.84352263  0.23665373  0.09027671    -0.38080
C2081       C  0.66417942  0.16071232  0.07670926    -0.04740
C2082       C  0.68416027  0.14262503  0.09427501    -0.01860
C2083       C  0.67285469  0.13842229  0.11884628     0.03130
C2084       C  0.63895800  0.14316528  0.12478644    -0.04740
C2085       C  0.61729264  0.15403099  0.10548439    -0.01850
C2086       C  0.63020244  0.16495251  0.08189518     0.03130
C2087       C  0.71611869  0.12751539  0.08675855     0.37780
C2088       C  0.58200036  0.15456475  0.10986732     0.37770
C2089       C  0.60882963  0.18140842  0.06333160     0.36190
C2090       C  0.69712030  0.13527195  0.13819092     0.36190
N2091       N  0.59176061  0.19454184  0.04849366    -0.38630
N2092       N  0.71658151  0.13445458  0.15366698    -0.38630
N2093       N  0.55381266  0.15484411  0.11334473    -0.38070
N2094       N  0.74111302  0.11437750  0.08047370    -0.38080
C2095       C  0.81062619  0.16487118  0.08155281    -0.04740
C2096       C  0.84243529  0.14734380  0.08076492    -0.01860
C2097       C  0.85862710  0.13742456  0.10310718     0.03130
C2098       C  0.84319406  0.14412632  0.12631210    -0.04740
C2099       C  0.81152034  0.16045656  0.12737797    -0.01850
C2100       C  0.79534106  0.17094512  0.10550447     0.03130
C2101       C  0.86004589  0.14220453  0.05737822     0.37780
C2102       C  0.79620001  0.16875700  0.15147176     0.37770
C2103       C  0.76390325  0.19074946  0.10868271     0.36190
C2104       C  0.89171633  0.12159512  0.10237755     0.36190
N2105       N  0.73936418  0.20727884  0.11178292    -0.38630
N2106       N  0.91821435  0.10921979  0.10189176    -0.38630
N2107       N  0.78429599  0.17552410  0.17066803    -0.38070
N2108       N  0.87466208  0.13801968  0.03894196    -0.38080
C2109       C  0.91615423  0.43404312  0.58104565    -0.04740
C2110       C  0.92381183  0.39598789  0.58837021    -0.01860
C2111       C  0.91532815  0.38329013  0.61260652     0.03130
C2112       C  0.90097640  0.40950791  0.63001694    -0.04740
C2113       C  0.89287567  0.44744618  0.62218554    -0.01850
C2114       C  0.89877016  0.45860058  0.59750230     0.03130
C2115       C  0.94178900  0.37070686  0.57140485     0.37780
C2116       C  0.88073119  0.47627070  0.63981454     0.37770
C2117       C  0.88710091  0.99575880  0.58890258     0.36190
C2118       C  0.92177124  0.34352793  0.61960842     0.36190
N2119       N  0.87712990  0.02494774  0.58177966    -0.38630
N2120       N  0.92696303  0.31177082  0.62515976    -0.38630
N2121       N  0.87111932  0.49902888  0.65400688    -0.38070
N2122       N  0.95620198  0.35071679  0.55778086    -0.38080
C2123       C  0.89882555  0.12001182  0.62955359    -0.04740
C2124       C  0.87427860  0.11742801  0.61091586    -0.01860
C2125       C  0.88364576  0.11236655  0.58558051     0.03130
C2126       C  0.91723381  0.11247585  0.57881134    -0.04740
C2127       C  0.94024221  0.12522065  0.59614290    -0.01850
C2128       C  0.93229286  0.12484144  0.62154709     0.03130
C2129       C  0.83962961  0.11997196  0.61749951     0.37780
C2130       C  0.97229934  0.13849760  0.58750012     0.37770
C2131       C  0.95958559  0.12607893  0.63875109     0.36190
C2132       C  0.85905050  0.10630057  0.56667604     0.36190
N2133       N  0.98147035  0.12731921  0.65231961    -0.38630
N2134       N  0.83942157  0.10148562  0.55155924    -0.38630
N2135       N  0.49740631  0.15027674  0.58050445    -0.38070
N2136       N  0.81191757  0.12202549  0.62265517    -0.38080
C2137       C  0.58711289  0.41746814  0.62929003    -0.04740
C2138       C  0.59084065  0.45644675  0.62163756    -0.01860
C2139       C  0.58230542  0.46742020  0.59742363     0.03130
C2140       C  0.56527997  0.44165097  0.58190908    -0.04740
C2141       C  0.56289348  0.40235163  0.58870392    -0.01850
C2142       C  0.57479110  0.39000949  0.61203184     0.03130
C2143       C  0.60182285  0.48595715  0.63891780     0.37780
C2144       C  0.54857515  0.37471099  0.57161795     0.37770
C2145       C  0.57480778  0.34911470  0.61804097     0.36190
C2146       C  0.59486706  0.00324556  0.58724036     0.36190
N2147       N  0.57503945  0.31642822  0.62273531    -0.38630
N2148       N  0.60693323  0.03043745  0.57860159    -0.38630
N2149       N  0.53744485  0.35261295  0.55784397    -0.38070
N2150       N  0.61045049  0.50919308  0.65295762    -0.38080
C2151       C  0.59163221  0.10817251  0.63188257    -0.04740
C2152       C  0.56189892  0.08753857  0.63054650    -0.01860
C2153       C  0.54574627  0.08324814  0.60788090     0.03130
C2154       C  0.56070613  0.09631243  0.58500029    -0.04740
C2155       C  0.59107101  0.11671762  0.58647742    -0.01850
C2156       C  0.60622845  0.12285869  0.60989854     0.03130
C2157       C  0.54778493  0.06988535  0.65288572     0.37780
C2158       C  0.60758251  0.13016537  0.56408695     0.37770
C2159       C  0.63703423  0.14382627  0.61141883     0.36190
C2160       C  0.51362268  0.06446448  0.60909116     0.36190
N2161       N  0.66171616  0.16041824  0.61265875    -0.38630
N2162       N  0.98840642  0.04894019  0.61047067    -0.38630
N2163       N  0.62099771  0.14086271  0.54627740    -0.38070
N2164       N  0.53651298  0.05599333  0.67060116    -0.38080
C2165       C  0.63200742  0.13765978  0.86504533    -0.04740
C2166       C  0.64135732  0.11438933  0.88533008    -0.01860
C2167       C  0.65830878  0.13084624  0.90565120     0.03130
C2168       C  0.66621447  0.17087647  0.90587437    -0.04740
C2169       C  0.65714984  0.19383734  0.88527792    -0.01850
C2170       C  0.63976840  0.17751229  0.86532331     0.03130
C2171       C  0.63412350  0.07323393  0.88501551     0.37780
C2172       C  0.66685434  0.23412083  0.88352489     0.37770
C2173       C  0.63156459  0.20179537  0.84433119     0.36190
C2174       C  0.66981902  0.10575227  0.92529068     0.36190
N2175       N  0.62516855  0.22163678  0.82781566    -0.38630
N2176       N  0.67919022  0.08538741  0.94071219    -0.38630
N2177       N  0.67487979  0.26593386  0.88072288    -0.38070
N2178       N  0.62847812  0.04038096  0.88468234    -0.38080
C2179       C  0.82717801  0.33571883  0.91267531    -0.04740
C2180       C  0.82707966  0.37589700  0.90804606    -0.01860
C2181       C  0.84324414  0.39071062  0.88664921     0.03130
C2182       C  0.85868073  0.36522368  0.86928406    -0.04740
C2183       C  0.86092183  0.32533563  0.87533791    -0.01850
C2184       C  0.84708505  0.31145795  0.89774223     0.03130
C2185       C  0.81060594  0.40203079  0.92533517     0.37780
C2186       C  0.87527790  0.29762304  0.85805427     0.37770
C2187       C  0.85574716  0.27325584  0.90666124     0.36190
C2188       C  0.84374495  0.43219587  0.88247725     0.36190
N2189       N  0.86376865  0.24344969  0.91426662    -0.38630
N2190       N  0.84405455  0.46528792  0.87912702    -0.38630
N2191       N  0.88637933  0.27496509  0.84443996    -0.38070
N2192       N  0.79764809  0.42306055  0.93913871    -0.38080
C2193       C  0.66379868  0.33974120  0.91108960    -0.04740
C2194       C  0.63019782  0.33186089  0.90706767    -0.01860
C2195       C  0.61310954  0.35108137  0.88785518     0.03130
C2196       C  0.63008232  0.37749219  0.87184579    -0.04740
C2197       C  0.66050848  0.39199941  0.88102543    -0.01850
C2198       C  0.67869079  0.37051414  0.89826668     0.03130
C2199       C  0.61336998  0.30338462  0.92241940     0.37780
C2200       C  0.67034008  0.43187787  0.87679688     0.37770
C2201       C  0.71258356  0.38081421  0.90317055     0.36190
C2202       C  0.57755199  0.34817743  0.88789318     0.36190
N2203       N  0.73979332  0.38861105  0.90676685    -0.38630
N2204       N  0.54910468  0.34595401  0.88847535    -0.38630
N2205       N  0.67837898  0.46366338  0.87365837    -0.38070
N2206       N  0.59999434  0.28069142  0.93468547    -0.38080
C2207       C  0.81880146  0.16873335  0.90607837    -0.04740
C2208       C  0.83591169  0.13284858  0.90807050    -0.01860
C2209       C  0.85364985  0.11728225  0.88742122     0.03130
C2210       C  0.85497414  0.13730350  0.86464949    -0.04740
C2211       C  0.83766463  0.17240757  0.86228978    -0.01850
C2212       C  0.81935400  0.18778463  0.88249512     0.03130
C2213       C  0.83396684  0.11037200  0.93075993     0.37780
C2214       C  0.83751756  0.19204954  0.83841399     0.37770
C2215       C  0.80108694  0.22332641  0.87825736     0.36190
C2216       C  0.87001337  0.08006581  0.88935462     0.36190
N2217       N  0.78656612  0.25151328  0.87445190    -0.38630
N2218       N  0.88297680  0.05031063  0.89082944    -0.38630
N2219       N  0.83728269  0.20750752  0.81936361    -0.38070
N2220       N  0.83252327  0.09198365  0.94868919    -0.38080
O2221       O  0.92798628  0.68915617  0.79964382    -0.74690
O2222       O  0.95498370  0.64051875  0.77883441    -0.53600
C2223       C  0.93225393  0.65327083  0.79398266     0.79030
O2224       O  0.93318430  0.81799282  0.70492233    -0.59300
O2225       O  0.95891433  0.86589794  0.72680714    -0.52330
C2226       C  0.93827172  0.85355679  0.71044236     0.71050
O2227       O  0.92403095  0.69292973  0.71131479    -0.73850
O2228       O  0.95495422  0.64318451  0.72654943    -0.54420
C2229       C  0.93036962  0.65696019  0.71418369     0.77050
O2230       O  0.93067893  0.81632818  0.80297725    -0.59000
O2231       O  0.95567486  0.86509523  0.78116258    -0.52120
C2232       C  0.93423777  0.85212844  0.79715906     0.73640
Zr2233     Zr  0.95016050  0.75286272  0.79091421     2.54710
O2234       O  0.89026753  0.75438179  0.79105868    -0.79560
O2235       O  0.95590392  0.75063687  0.83593800    -0.92980
Zr2236     Zr  0.94961119  0.75435341  0.71789415     2.64680
O2237       O  0.88974830  0.75772706  0.71564917    -0.97940
O2238       O  0.95658465  0.74988945  0.67288432    -0.80000
O2239       O  0.94956287  0.71589585  0.75405442    -0.83350
O2240       O  0.94903180  0.79168628  0.75474575    -2.18060
O2241       O  0.56344079  0.81635062  0.80197906    -0.66740
O2242       O  0.53756050  0.86496969  0.78102736    -0.51310
C2243       C  0.55899826  0.85221534  0.79665829     0.72030
O2244       O  0.57357044  0.69366093  0.71444434    -0.59650
O2245       O  0.53825863  0.64457197  0.72477208    -0.51630
C2246       C  0.56507535  0.65800642  0.71465037     0.73830
O2247       O  0.56229752  0.81792943  0.70426376    -0.71050
O2248       O  0.53555131  0.86576407  0.72611247    -0.49720
C2249       C  0.55685672  0.85357829  0.70974341     0.75210
O2250       O  0.56473635  0.68803342  0.79869870    -0.66380
O2251       O  0.53721971  0.63970034  0.77849597    -0.53570
C2252       C  0.55971005  0.65215522  0.79343893     0.73590
Zr2253     Zr  0.54548453  0.75265270  0.78901659     2.77540
O2254       O  0.60489332  0.75312494  0.78188702    -0.97130
O2255       O  0.54786503  0.74982849  0.83422389    -0.77950
Zr2256     Zr  0.54395969  0.75391443  0.71624546     2.70070
O2257       O  0.60192249  0.75947928  0.70469618    -0.79190
O2258       O  0.53216591  0.74390142  0.67239210    -0.98280
Zr2259     Zr  0.49676481  0.67495710  0.75294851     2.21500
Zr2260     Zr  0.99714346  0.83162541  0.75442359     2.11130
O2261       O  0.54539732  0.79170886  0.75298122    -2.46960
O2262       O  0.54451471  0.71528119  0.75238591    -0.78990
O2263       O  0.99781251  0.79233188  0.79120517    -0.71180
O2264       O  0.49663419  0.71365446  0.71573640    -2.32140
O2265       O  0.49767401  0.71316452  0.79044151    -2.28350
O2266       O  0.99688879  0.79405341  0.71685991    -0.72940
H2267       H  0.92927897  0.80728110  0.75489889     0.79050
H2268       H  0.49642025  0.69733686  0.70109679     0.80140
H2269       H  0.56501418  0.80748591  0.75263996     0.82370
H2270       H  0.49779586  0.69673057  0.80494306     0.79970
H2271       H  0.95848663  0.72185881  0.66920551     0.43010
H2272       H  0.53227349  0.77025595  0.66519617     0.41980
H2273       H  0.61309250  0.76578526  0.72046743     0.41660
H2274       H  0.60846127  0.73606277  0.76724718     0.39590
H2275       H  0.53845710  0.77476239  0.84009332     0.42720
H2276       H  0.97987702  0.74841899  0.83864060     0.37510
H2277       H  0.88426361  0.74767345  0.77377831     0.43620
H2278       H  0.88327460  0.78010096  0.72621616     0.40040
H2279       H  0.61024968  0.77941541  0.77578737     0.44960
H2280       H  0.94695592  0.72512304  0.84093362     0.43680
H2281       H  0.88512783  0.76602496  0.69843195     0.43820
H2282       H  0.55229699  0.73146243  0.66549197     0.44170
C2283       C  0.87017404  0.61952440  0.84191226     0.03730
C2284       C  0.89892928  0.63502408  0.83120595    -0.12420
C2285       C  0.90813775  0.62658876  0.80630444     0.01230
C2286       C  0.88812610  0.60100880  0.79241980    -0.10950
C2287       C  0.85883727  0.58564593  0.80313598     0.03720
C2288       C  0.85092542  0.59428949  0.82800974    -0.10370
H2289       H  0.91247574  0.65662439  0.84159247     0.09310
H2290       H  0.89345279  0.59628918  0.77287376     0.06840
H2291       H  0.82799032  0.58386535  0.83609486     0.06690
O2292       O  0.80621281  0.57345936  0.69681862    -0.74690
O2293       O  0.84287517  0.53952644  0.72016827    -0.53600
C2294       C  0.83575954  0.56498599  0.70376932     0.79030
O2295       O  0.68990897  0.57374593  0.79412272    -0.59300
O2296       O  0.65106343  0.54264071  0.77125962    -0.52330
C2297       C  0.65971991  0.56652367  0.78831166     0.71050
O2298       O  0.80302281  0.57375987  0.79366999    -0.73850
O2299       O  0.84239681  0.54020376  0.77198222    -0.54420
C2300       C  0.83335253  0.56533780  0.78838334     0.77050
O2301       O  0.69304080  0.57716757  0.69597455    -0.59000
O2302       O  0.65441590  0.54505067  0.71930417    -0.52120
C2303       C  0.66302224  0.57038364  0.70305438     0.73640
Zr2304     Zr  0.74880965  0.55503861  0.70738241     2.54710
O2305       O  0.75034787  0.62543433  0.70560624    -0.79560
O2306       O  0.74968435  0.54913439  0.66222250    -0.92980
Zr2307     Zr  0.74663095  0.55670373  0.78180381     2.64680
O2308       O  0.74712183  0.62719490  0.78054690    -0.97940
O2309       O  0.74589774  0.55842798  0.82708941    -0.80000
O2310       O  0.77929182  0.55627346  0.74490514    -0.83350
O2311       O  0.71627502  0.55746687  0.74451683    -2.18060
O2312       O  0.68972938  0.92253428  0.69579756    -0.66740
O2313       O  0.65254803  0.95682463  0.71938523    -0.51310
C2314       C  0.66000132  0.93144787  0.70278761     0.72030
O2315       O  0.80066397  0.92252112  0.79487386    -0.59650
O2316       O  0.84057004  0.95506850  0.77335694    -0.51630
C2317       C  0.83107454  0.93046575  0.78983071     0.73830
O2318       O  0.68878651  0.92634830  0.79421186    -0.71050
O2319       O  0.65032736  0.95889244  0.77198725    -0.49720
C2320       C  0.65876182  0.93476388  0.78889762     0.75210
O2321       O  0.80330213  0.91826596  0.69799368    -0.66380
O2322       O  0.84033557  0.95115403  0.72180381    -0.53570
C2323       C  0.83281574  0.92570142  0.70545825     0.73590
Zr2324     Zr  0.74667432  0.94029512  0.70792140     2.77540
O2325       O  0.74529759  0.86978725  0.70698821    -0.97130
O2326       O  0.74927402  0.94460034  0.66275501    -0.77950
Zr2327     Zr  0.74533404  0.94163059  0.78209888     2.70070
O2328       O  0.74371173  0.87117520  0.78078809    -0.79190
O2329       O  0.74487731  0.94140174  0.82740412    -0.98280
Zr2330     Zr  0.80986296  0.99741993  0.74605111     2.21500
Zr2331     Zr  0.68381421  0.99988611  0.74507920     2.11130
O2332       O  0.71434229  0.94076550  0.74505471    -2.46960
O2333       O  0.77772837  0.93970094  0.74523443    -0.78990
O2334       O  0.71528479  0.49850095  0.70719533    -0.71180
O2335       O  0.77769584  0.99864197  0.78331077    -2.32140
O2336       O  0.78016907  0.99690704  0.70781513    -2.28350
O2337       O  0.71402920  0.99973600  0.78274131    -0.72940
H2338       H  0.70251607  0.58029539  0.74450184     0.79050
H2339       H  0.79142529  0.99858757  0.79784765     0.80140
H2340       H  0.69983130  0.91861078  0.74522358     0.82370
H2341       H  0.79516093  0.99620378  0.69372049     0.79970
H2342       H  0.75805125  0.53488854  0.83207242     0.43010
H2343       H  0.72812107  0.96099245  0.83221064     0.41980
H2344       H  0.75393145  0.86429089  0.76454201     0.41660
H2345       H  0.72624195  0.86269754  0.71770036     0.39590
H2346       H  0.73196579  0.96359031  0.65851024     0.42720
H2347       H  0.77067074  0.53576184  0.65817717     0.37510
H2348       H  0.75426024  0.63362104  0.72299029     0.43620
H2349       H  0.72692878  0.63432364  0.77150735     0.40040
H2350       H  0.73833243  0.86318318  0.68990623     0.44960
H2351       H  0.75301005  0.57595060  0.65623534     0.43680
H2352       H  0.74262775  0.63528057  0.79795590     0.43820
H2353       H  0.73483692  0.91627901  0.83205238     0.44170
C2354       C  0.61893402  0.88731409  0.84530991     0.03730
C2355       C  0.59019715  0.87205633  0.83416551    -0.12420
C2356       C  0.58228723  0.87905133  0.80901490     0.01230
C2357       C  0.60294747  0.90292746  0.79455835    -0.10950
C2358       C  0.63291663  0.91579822  0.80434363     0.03720
C2359       C  0.64070742  0.90674591  0.82897059    -0.10370
H2360       H  0.57494537  0.85138749  0.84361294     0.09310
H2361       H  0.59789660  0.90717804  0.77501461     0.06840
H2362       H  0.66543941  0.91298756  0.83444710     0.06690
C2363       C  0.87015904  0.87979817  0.84432912     0.03730
C2364       C  0.90139645  0.87044528  0.83446068    -0.12420
C2365       C  0.90959851  0.87803904  0.80935998     0.01230
C2366       C  0.88744242  0.89970318  0.79491649    -0.10950
C2367       C  0.85637416  0.91056585  0.80487822     0.03720
C2368       C  0.84797441  0.89972476  0.82929578    -0.10370
H2369       H  0.91832721  0.85385123  0.84563141     0.09310
H2370       H  0.89291658  0.90470025  0.77541901     0.06840
H2371       H  0.82353357  0.90609069  0.83656319     0.06690
C2372       C  0.61922058  0.61984005  0.84172092     0.03730
C2373       C  0.64043802  0.59635602  0.82769547    -0.12420
C2374       C  0.63365745  0.58689447  0.80291195     0.01230
C2375       C  0.60435435  0.60090333  0.79206311    -0.10950
C2376       C  0.58271733  0.62507606  0.80594015     0.03720
C2377       C  0.58985907  0.63283150  0.83108282    -0.10370
H2378       H  0.66359305  0.58747429  0.83573945     0.09310
H2379       H  0.60016882  0.59630310  0.77242542     0.06840
H2380       H  0.57440185  0.65282804  0.84158730     0.06690
C2381       C  0.60458648  0.61639390  0.65714298     0.03730
C2382       C  0.58372327  0.63673407  0.67352256    -0.12420
C2383       C  0.58662738  0.63316737  0.69923416     0.01230
C2384       C  0.61312083  0.61208089  0.70882877    -0.10950
C2385       C  0.63613847  0.59393353  0.69257749     0.03720
C2386       C  0.63162785  0.59604241  0.66666427    -0.10370
H2387       H  0.56319735  0.65299165  0.66609799     0.09310
H2388       H  0.61637272  0.61066112  0.72876596     0.06840
H2389       H  0.64751028  0.57959031  0.65418015     0.06690
C2390       C  0.59544088  0.90613349  0.65536031     0.03730
C2391       C  0.57173519  0.88780826  0.67060173    -0.12420
C2392       C  0.57773390  0.88124483  0.69589314     0.01230
C2393       C  0.60734775  0.89437252  0.70617921    -0.10950
C2394       C  0.63160445  0.91212789  0.69112436     0.03720
C2395       C  0.62599299  0.91651983  0.66562730    -0.10370
H2396       H  0.54857907  0.87845380  0.66278604     0.09310
H2397       H  0.61194659  0.88982426  0.72577151     0.06840
H2398       H  0.64452752  0.93053681  0.65411939     0.06690
C2399       C  0.89041338  0.61774333  0.65697379     0.03730
C2400       C  0.90809221  0.64049656  0.67369197    -0.12420
C2401       C  0.90923752  0.63177456  0.69901660     0.01230
C2402       C  0.88645043  0.60531834  0.70886929    -0.10950
C2403       C  0.86356274  0.58724441  0.69298363     0.03720
C2404       C  0.86694994  0.59175107  0.66699615    -0.10370
H2405       H  0.92250170  0.66458839  0.66673628     0.09310
H2406       H  0.88476706  0.60122921  0.72878824     0.06840
H2407       H  0.85166470  0.57456153  0.65489539     0.06690
C2408       C  0.89521476  0.89854611  0.65656503     0.03730
C2409       C  0.92114169  0.88478502  0.67125522    -0.12420
C2410       C  0.91688491  0.88048489  0.69706221     0.01230
C2411       C  0.88719716  0.89243556  0.70831153    -0.10950
C2412       C  0.86101105  0.90571532  0.69373867     0.03720
C2413       C  0.86451155  0.90625533  0.66788431    -0.10370
H2414       H  0.94450258  0.87693024  0.66266520     0.09310
H2415       H  0.88394813  0.88997548  0.72828752     0.06840
H2416       H  0.84430932  0.91666188  0.65673312     0.06690
O2417       O  0.81153011  0.82825385  0.95504346    -0.74690
O2418       O  0.78370667  0.79413217  0.92552701    -0.53600
C2419       C  0.80596519  0.81843753  0.93241821     0.79030
O2420       O  0.80381749  0.67177679  0.03638150    -0.59300
O2421       O  0.77476881  0.70978631  0.06314898    -0.52330
C2422       C  0.79544819  0.68270765  0.05868980     0.71050
O2423       O  0.80884928  0.67771518  0.95050580    -0.73850
O2424       O  0.77722944  0.71038873  0.92308414    -0.54420
C2425       C  0.80041039  0.68646512  0.92806027     0.77050
O2426       O  0.80709369  0.82660234  0.03769853    -0.59000
O2427       O  0.77646494  0.79064270  0.06491887    -0.52120
C2428       C  0.79911266  0.81570379  0.05982106     0.73640
Zr2429     Zr  0.78981678  0.80983227  0.99565055     2.54710
O2430       O  0.84969688  0.81010041  0.99700062    -0.79560
O2431       O  0.78563516  0.88015566  0.99694833    -0.92980
Zr2432     Zr  0.79034979  0.69348766  0.99351401     2.64680
O2433       O  0.85021534  0.69695015  0.99369379    -0.97940
O2434       O  0.78951831  0.62300982  0.99229921    -0.80000
O2435       O  0.79128386  0.75264436  0.97087152    -0.83350
O2436       O  0.78990110  0.75085274  0.01805829    -2.18060
O2437       O  0.67372625  0.82797317  0.03710320    -0.66740
O2438       O  0.70349802  0.79264194  0.06470922    -0.51310
C2439       C  0.68188790  0.81838112  0.05933441     0.72030
O2440       O  0.67545868  0.67883090  0.94946240    -0.59650
O2441       O  0.70712652  0.71317396  0.92206964    -0.51630
C2442       C  0.68419053  0.68866437  0.92721027     0.73830
O2443       O  0.67246867  0.67327364  0.03333696    -0.71050
O2444       O  0.70276902  0.70611215  0.06205479    -0.49720
C2445       C  0.68064138  0.68131304  0.05583236     0.75210
O2446       O  0.67276242  0.82595575  0.95337434    -0.66380
O2447       O  0.70656225  0.79762627  0.92425517    -0.53570
C2448       C  0.68217682  0.81946891  0.93082861     0.73590
Zr2449     Zr  0.69140202  0.80959651  0.99478928     2.77540
O2450       O  0.63141231  0.80942850  0.99500153    -0.97130
O2451       O  0.69423165  0.87999058  0.99405273    -0.77950
Zr2452     Zr  0.69188689  0.69390270  0.99216697     2.70070
O2453       O  0.63199172  0.69239854  0.99149829    -0.79190
O2454       O  0.69696293  0.62367736  0.99063958    -0.98280
Zr2455     Zr  0.74262938  0.75403312  0.94678847     2.21500
Zr2456     Zr  0.73915202  0.75081376  0.04050506     2.11130
O2457       O  0.68991163  0.75080902  0.01720408    -2.46960
O2458       O  0.69214587  0.75284005  0.96964940    -0.78990
O2459       O  0.73982361  0.81048663  0.01905659    -0.71180
O2460       O  0.74197993  0.69422162  0.96894317    -2.32140
O2461       O  0.74145118  0.81179159  0.97113940    -2.28350
O2462       O  0.74010698  0.69256497  0.01673482    -0.72940
H2463       H  0.80847491  0.75039202  0.02909179     0.79050
H2464       H  0.74222264  0.67240421  0.95763298     0.80140
H2465       H  0.67068868  0.75035281  0.02797041     0.82370
H2466       H  0.74177080  0.83436506  0.96058049     0.79970
H2467       H  0.77117503  0.61645899  0.98108804     0.43010
H2468       H  0.71031186  0.61704373  0.00530628     0.41980
H2469       H  0.62561230  0.71871103  0.98609595     0.41660
H2470       H  0.62505878  0.78976670  0.00751737     0.39590
H2471       H  0.71015262  0.88669321  0.00718160     0.42720
H2472       H  0.77085037  0.88690207  0.98313182     0.37510
H2473       H  0.85621421  0.78396812  0.99106990     0.43620
H2474       H  0.85579283  0.70565826  0.01069235     0.40040
H2475       H  0.62497494  0.83450906  0.00263743     0.44960
H2476       H  0.80762390  0.88937572  0.99145334     0.43680
H2477       H  0.85751834  0.66960469  0.99284848     0.43820
H2478       H  0.67460172  0.61406372  0.99479412     0.44170
C2479       C  0.62956114  0.87910833  0.15241508     0.03730
C2480       C  0.64031570  0.91326357  0.16418911    -0.12420
C2481       C  0.63423213  0.91973911  0.18974051     0.01230
C2482       C  0.61361966  0.89430262  0.20280696    -0.10950
C2483       C  0.60146741  0.86123721  0.19087099     0.03720
C2484       C  0.61011316  0.85318249  0.16613988    -0.10370
H2485       H  0.65600038  0.93327758  0.15406136     0.09310
H2486       H  0.60842811  0.89904079  0.22241445     0.06840
H2487       H  0.60179021  0.82640426  0.15771513     0.06690
C2488       C  0.85944255  0.63522361  0.15019946     0.03730
C2489       C  0.87985698  0.66296896  0.16124574    -0.12420
C2490       C  0.88521908  0.66229544  0.18699701     0.01230
C2491       C  0.87039034  0.63337780  0.20168496    -0.10950
C2492       C  0.85053509  0.60509997  0.19058125     0.03720
C2493       C  0.84614329  0.60549741  0.16478244    -0.10370
H2494       H  0.88982804  0.68642430  0.15012698     0.09310
H2495       H  0.87341694  0.63367272  0.22167670     0.06840
H2496       H  0.82871908  0.58560001  0.15648368     0.06690
C2497       C  0.85505585  0.87725564  0.15092080     0.03730
C2498       C  0.83918636  0.90770825  0.16357136    -0.12420
C2499       C  0.84711979  0.91704033  0.18840032     0.01230
C2500       C  0.87024141  0.89433535  0.20086856    -0.10950
C2501       C  0.88587008  0.86365167  0.18828689     0.03720
C2502       C  0.88010883  0.85723787  0.16307453    -0.10370
H2503       H  0.81898279  0.92250757  0.15467588     0.09310
H2504       H  0.87484080  0.89921670  0.22045110     0.06840
H2505       H  0.89351866  0.83441989  0.15339361     0.06690
O2506       O  0.68742971  0.93913932  0.19762599    -0.74690
O2507       O  0.64653715  0.96836604  0.22048898    -0.53600
C2508       C  0.65710686  0.94474018  0.20344595     0.79030
O2509       O  0.79600096  0.93036547  0.29339072    -0.59300
O2510       O  0.83632496  0.96576829  0.27396959    -0.52330
C2511       C  0.82613476  0.93834162  0.28838407     0.71050
O2512       O  0.68898147  0.92548122  0.29124952    -0.73850
O2513       O  0.64850662  0.96280127  0.27417103    -0.54420
C2514       C  0.65893376  0.93388121  0.28711111     0.77050
O2515       O  0.79449721  0.93808996  0.19688087    -0.59000
O2516       O  0.83550534  0.96649066  0.21921138    -0.52120
C2517       C  0.82472469  0.94283954  0.20240302     0.73640
Zr2518     Zr  0.74132934  0.95972842  0.20984636     2.54710
O2519       O  0.74122606  0.88947132  0.20606629    -0.79560
O2520       O  0.74288336  0.97465421  0.16554899    -0.92980
Zr2521     Zr  0.74184418  0.95311802  0.28291494     2.64680
O2522       O  0.74228369  0.88250670  0.28297425    -0.97940
O2523       O  0.74002702  0.95786756  0.32813459    -0.80000
O2524       O  0.70951145  0.95576591  0.24663117    -0.83350
O2525       O  0.77365466  0.95532087  0.24597482    -2.18060
O2526       O  0.79662024  0.59091935  0.20151170    -0.66740
O2527       O  0.83721899  0.55648803  0.22061307    -0.51310
C2528       C  0.82693644  0.58259523  0.20547449     0.72030
O2529       O  0.68822615  0.59245575  0.29590570    -0.59650
O2530       O  0.64760236  0.56073405  0.27497425    -0.51630
C2531       C  0.65818533  0.58731852  0.28989752     0.73830
O2532       O  0.79406999  0.59066969  0.29658455    -0.71050
O2533       O  0.83481788  0.56094684  0.27371074    -0.49720
C2534       C  0.82404049  0.58646334  0.28953874     0.75210
O2535       O  0.68752973  0.59056348  0.20124326    -0.66240
O2536       O  0.64656714  0.55740281  0.22158506    -0.53570
C2537       C  0.65715117  0.58285154  0.20584198     0.73590
Zr2538     Zr  0.74175614  0.57109936  0.21398086     2.77540
O2539       O  0.73964646  0.64133782  0.21840157    -0.97130
O2540       O  0.74460687  0.56630567  0.16883916    -0.77950
Zr2541     Zr  0.74115084  0.56409163  0.28731576     2.70070
O2542       O  0.74174366  0.63188396  0.29991132    -0.79190
O2543       O  0.73956882  0.54483833  0.33082570    -0.98280
Zr2544     Zr  0.67589906  0.51226516  0.24870026     2.21500
Zr2545     Zr  0.80712136  0.51207509  0.24788583     2.11130
O2546       O  0.77322855  0.56866772  0.25030667    -2.46960
O2547       O  0.70951745  0.56864161  0.25082513    -0.78990
O2548       O  0.77500668  0.51520984  0.21117994    -0.71180
O2549       O  0.70738358  0.50853257  0.28609837    -2.32140
O2550       O  0.70828146  0.51547575  0.21147710    -2.28350
O2551       O  0.77552917  0.50880352  0.28576858    -0.72940
H2552       H  0.78700988  0.93219378  0.24502142     0.79050
H2553       H  0.69320969  0.50734912  0.30065140     0.80140
H2554       H  0.78621939  0.59205981  0.25043569     0.82370
H2555       H  0.69468499  0.51636828  0.19688255     0.79970
H2556       H  0.71632226  0.95713862  0.33265548     0.43010
H2557       H  0.76204498  0.55014210  0.33689228     0.41980
H2558       H  0.74269043  0.64636994  0.28405891     0.41660
H2559       H  0.76269815  0.64950856  0.22106828     0.39590
H2560       H  0.76546560  0.55247814  0.16508460     0.42720
H2561       H  0.72020239  0.97027103  0.15963477     0.37510
H2562       H  0.73546155  0.88022769  0.22297600     0.43620
H2563       H  0.76035588  0.87498715  0.27138784     0.40040
H2564       H  0.73422605  0.65105519  0.20166865     0.44960
H2565       H  0.75615574  0.95375362  0.15771276     0.43680
H2566       H  0.75021378  0.87523159  0.29965955     0.43820
H2567       H  0.72555796  0.56463141  0.33913711     0.44170
O2568       O  0.54703826  0.84554913  0.19823361    -0.74690
O2569       O  0.58660424  0.80868916  0.21667995    -0.53600
C2570       C  0.57698290  0.83694990  0.20302538     0.79030
O2571       O  0.93498158  0.83305710  0.29329538    -0.59300
O2572       O  0.89520351  0.80650280  0.26893658    -0.52330
C2573       C  0.90498282  0.82860265  0.28687707     0.71050
O2574       O  0.54136312  0.83772270  0.29334077    -0.73850
O2575       O  0.58273000  0.80989000  0.27027494    -0.54420
C2576       C  0.57163034  0.83337264  0.28727484     0.77050
O2577       O  0.93962999  0.84638578  0.19579905    -0.59000
O2578       O  0.89877614  0.81087141  0.21461204    -0.52120
C2579       C  0.90943651  0.83875445  0.20067712     0.73640
Zr2580     Zr  0.49251242  0.82028712  0.20586623     2.54710
O2581       O  0.49287291  0.89044392  0.20165962    -0.79560
O2582       O  0.99440419  0.81083458  0.16095422    -0.92980
Zr2583     Zr  0.48923615  0.81677326  0.27880700     2.64680
O2584       O  0.48876518  0.88659313  0.27200206    -0.97940
O2585       O  0.98884067  0.81776177  0.32409051    -0.80000
O2586       O  0.52308965  0.81977021  0.24292706    -0.83350
O2587       O  0.95866590  0.81951118  0.24212491    -2.18060
O2588       O  0.93866027  0.68457853  0.19159928    -0.66740
O2589       O  0.89790436  0.71505897  0.21406778    -0.51310
C2590       C  0.90848201  0.68962393  0.19813573     0.72030
O2591       O  0.54499746  0.68419506  0.28821778    -0.59650
O2592       O  0.58583616  0.71906481  0.26908570    -0.51630
C2593       C  0.57532478  0.69276156  0.28409264     0.73830
O2594       O  0.93572045  0.68627510  0.28919570    -0.71050
O2595       O  0.89547168  0.71816197  0.26806584    -0.49720
C2596       C  0.90555155  0.69353584  0.28428081     0.75210
O2597       O  0.54703544  0.68481734  0.19322508    -0.66380
O2598       O  0.58605801  0.71604340  0.21619833    -0.53570
C2599       C  0.57675012  0.69057266  0.20010135     0.73590
Zr2600     Zr  0.99242217  0.70837219  0.20302120     2.77540
O2601       O  0.99438351  0.63818269  0.19811332    -0.97130
O2602       O  0.99419568  0.71987012  0.15837190    -0.77950
Zr2603     Zr  0.99048865  0.70421863  0.27630304     2.70070
O2604       O  0.98931966  0.63387940  0.27309035    -0.79190
O2605       O  0.99112702  0.70355566  0.32159432    -0.98280
Zr2606     Zr  0.55609578  0.76296900  0.24222383     2.21500
Zr2607     Zr  0.92578603  0.76242045  0.24072948     2.11130
O2608       O  0.95935872  0.70535713  0.23956582    -2.46960
O2609       O  0.52352189  0.70568570  0.23996313    -0.78990
O2610       O  0.95873366  0.76443751  0.20342809    -0.71180
O2611       O  0.52262285  0.76082823  0.27894628    -2.32140
O2612       O  0.52598380  0.76436833  0.20422539    -2.28350
O2613       O  0.95693303  0.76016210  0.27804374    -0.72940
H2614       H  0.94515349  0.84251948  0.24290838     0.79050
H2615       H  0.53585416  0.76036076  0.29374559     0.80140
H2616       H  0.94601493  0.68222391  0.23932003     0.82370
H2617       H  0.54067450  0.76505347  0.18995357     0.79970
H2618       H  0.49934306  0.79304125  0.32886750     0.43010
H2619       H  0.97243740  0.72030789  0.32678003     0.41980
H2620       H  0.50048751  0.62808457  0.25702144     0.41660
H2621       H  0.97680677  0.62816297  0.20927909     0.39590
H2622       H  0.97162488  0.72837905  0.15426268     0.42720
H2623       H  0.51813918  0.81102787  0.15650506     0.37510
H2624       H  0.49173584  0.90027411  0.21897513     0.43620
H2625       H  0.96594203  0.89512480  0.27570616     0.40040
H2626       H  0.98636737  0.63312414  0.18108870     0.44960
H2627       H  0.48579726  0.83536173  0.15410209     0.43680
H2628       H  0.50217124  0.89785159  0.28546154     0.43820
H2629       H  0.98412277  0.67702552  0.32616948     0.44170
C2630       C  0.62710702  0.63803204  0.15117717     0.03730
C2631       C  0.63852166  0.60674661  0.16536102    -0.12420
C2632       C  0.63399597  0.60593199  0.19128599     0.01230
C2633       C  0.61464969  0.63445238  0.20290360    -0.10950
C2634       C  0.60111582  0.66444756  0.18878284     0.03720
C2635       C  0.60782708  0.66657200  0.16313087    -0.10370
H2636       H  0.65369707  0.58462712  0.15655437     0.09310
H2637       H  0.61080750  0.63389458  0.22286977     0.06840
H2638       H  0.59856225  0.69096283  0.15270786     0.06690
C2639       C  0.60919575  0.64155758  0.33880999     0.03730
C2640       C  0.59423331  0.67000886  0.32447553    -0.12420
C2641       C  0.59878260  0.67052731  0.29859813     0.01230
C2642       C  0.61928851  0.64297867  0.28700471    -0.10950
C2643       C  0.63508530  0.61490273  0.30136942     0.03720
C2644       C  0.63078172  0.61503282  0.32730010    -0.10370
H2645       H  0.57585886  0.68877708  0.33307238     0.09310
H2646       H  0.62202844  0.64254397  0.26694416     0.06840
H2647       H  0.64178248  0.59223324  0.33825688     0.06690
C2648       C  0.87160348  0.63889824  0.33845412     0.03730
C2649       C  0.85034928  0.61303133  0.32668959    -0.12420
C2650       C  0.84663678  0.61397966  0.30090250     0.01230
C2651       C  0.86193928  0.64323335  0.28690086    -0.10950
C2652       C  0.88193066  0.67062510  0.29878771     0.03720
C2653       C  0.88654075  0.66834054  0.32462083    -0.10370
H2654       H  0.83923421  0.58968608  0.33731435     0.09310
H2655       H  0.85937490  0.64371198  0.26687186     0.06840
H2656       H  0.90469615  0.68668697  0.33344459     0.06690
C2657       C  0.60531822  0.89685291  0.33855073     0.03730
C2658       C  0.58676185  0.86884957  0.32582407    -0.12420
C2659       C  0.59402273  0.85915260  0.30076268     0.01230
C2660       C  0.61775641  0.88057726  0.28769097    -0.10950
C2661       C  0.63525238  0.90948530  0.30005551     0.03720
C2662       C  0.63135679  0.91460685  0.32568098    -0.10370
H2663       H  0.56573269  0.85566104  0.33502199     0.09310
H2664       H  0.62163725  0.87593115  0.26791540     0.06840
H2665       H  0.64733509  0.93476286  0.33522564     0.06690
C2666       C  0.87723931  0.89386044  0.33841604     0.03730
C2667       C  0.85774594  0.92019075  0.32540957    -0.12420
C2668       C  0.84995526  0.91326370  0.30047942     0.01230
C2669       C  0.86199083  0.88006288  0.28818072    -0.10950
C2670       C  0.88184849  0.85366675  0.30088490     0.03720
C2671       C  0.88783260  0.85983049  0.32634532    -0.10370
H2672       H  0.84929028  0.94657106  0.33446232     0.09310
H2673       H  0.85731669  0.87594363  0.26853831     0.06840
H2674       H  0.90404787  0.84022399  0.33607461     0.06690
O2675       O  0.55668249  0.94671239  0.53815671    -0.74690
O2676       O  0.52410241  0.98142628  0.56503098    -0.53600
C2677       C  0.54750384  0.95730500  0.56017565     0.79030
O2678       O  0.55556259  0.59731577  0.45211176    -0.59300
O2679       O  0.52088145  0.56583328  0.42646556    -0.52330
C2680       C  0.54466604  0.58905270  0.43016637     0.71050
O2681       O  0.55487636  0.59702220  0.53899739    -0.73850
O2682       O  0.52446000  0.55712169  0.56298959    -0.54420
C2683       C  0.54598137  0.58342793  0.56051726     0.77050
O2684       O  0.55988725  0.94430407  0.45429750    -0.59000
O2685       O  0.53143713  0.98060598  0.42648332    -0.52120
C2686       C  0.55347210  0.95540794  0.43209342     0.73640
Zr2687     Zr  0.54029351  0.96284860  0.49571591     2.54710
O2688       O  0.60016237  0.96551834  0.49642762    -0.79560
O2689       O  0.54010357  0.89234230  0.49554815    -0.92980
Zr2690     Zr  0.53875801  0.58019689  0.49543366     2.64680
O2691       O  0.59869917  0.58207287  0.49560671    -0.97940
O2692       O  0.53517337  0.65062234  0.49569539    -0.80000
O2693       O  0.53872410  0.52163230  0.51864087    -0.83350
O2694       O  0.54093411  0.52115003  0.47228162    -2.18060
O2695       O  0.92543239  0.94119576  0.45214713    -0.66740
O2696       O  0.95726707  0.97617430  0.42528533    -0.51310
C2697       C  0.93497786  0.95080662  0.43004461     0.72030
O2698       O  0.92113433  0.59917780  0.53497146    -0.59650
O2699       O  0.95184440  0.56452479  0.56228409    -0.51630
C2700       C  0.93034780  0.59057214  0.55707172     0.73830
O2701       O  0.92136189  0.59066809  0.45082062    -0.71050
O2702       O  0.95653577  0.55907387  0.42477333    -0.49720
C2703       C  0.93180999  0.58139160  0.42881979     0.75210
O2704       O  0.92525062  0.94003426  0.53704537    -0.66380
O2705       O  0.95252645  0.97901488  0.56425880    -0.53570
C2706       C  0.93231799  0.95177349  0.55915061     0.73590
Zr2707     Zr  0.94079589  0.96001748  0.49459788     2.77540
O2708       O  0.88092996  0.96185990  0.49676485    -0.97130
O2709       O  0.94143622  0.88956699  0.49336473    -0.77950
Zr2710     Zr  0.93911523  0.57739158  0.49359076     2.70070
O2711       O  0.87921969  0.58005074  0.49441438    -0.79190
O2712       O  0.94402561  0.64758419  0.49119222    -0.98280
Zr2713     Zr  0.98741611  0.51990649  0.53988688     2.21500
Zr2714     Zr  0.99121776  0.51882980  0.44952303     2.11130
O2715       O  0.94002188  0.51804583  0.47105586    -2.46960
O2716       O  0.93783803  0.51916539  0.51738159    -0.78990
O2717       O  0.99148196  0.95981549  0.47170519    -0.71180
O2718       O  0.98780767  0.57939484  0.51786763    -2.32140
O2719       O  0.98971146  0.96024806  0.51830144    -2.28350
O2720       O  0.98988885  0.57875194  0.47123675    -0.72940
H2721       H  0.55998459  0.52159223  0.46134592     0.79050
H2722       H  0.98718794  0.60131147  0.52908801     0.80140
H2723       H  0.92176261  0.51722653  0.45973978     0.82370
H2724       H  0.98992008  0.93860561  0.52962535     0.79970
H2725       H  0.51530914  0.65657744  0.50587771     0.43010
H2726       H  0.95122776  0.65279330  0.47386269     0.41980
H2727       H  0.87245064  0.55661554  0.50371530     0.41660
H2728       H  0.87465274  0.98250234  0.48501082     0.39590
H2729       H  0.96315012  0.88292094  0.48591310     0.42720
H2730       H  0.52338034  0.88510676  0.50825171     0.37510
H2731       H  0.60514854  0.49191539  0.50258856     0.43620
H2732       H  0.60564659  0.56542034  0.48144328     0.40040
H2733       H  0.87386686  0.93745231  0.48871769     0.44960
H2734       H  0.56140697  0.88499506  0.50294551     0.43680
H2735       H  0.60433514  0.60870645  0.49028171     0.43820
H2736       H  0.92105199  0.65714386  0.49214458     0.44170
C2737       C  0.91962146  0.93182519  0.40804356    -0.04740
C2738       C  0.93983848  0.92047785  0.38766535    -0.01860
C2739       C  0.92586238  0.90866813  0.36511243     0.03130
C2740       C  0.89138866  0.90505523  0.36294064    -0.04740
C2741       C  0.87100262  0.91446561  0.38362027    -0.01850
C2742       C  0.88498804  0.92859484  0.40590503     0.03130
C2743       C  0.97539895  0.92187704  0.38930318     0.37780
C2744       C  0.83558815  0.91013478  0.38185242     0.37770
C2745       C  0.86349449  0.94212807  0.42584522     0.36190
C2746       C  0.94727932  0.90306706  0.34360130     0.36190
N2747       N  0.84596809  0.95316230  0.44147217    -0.38630
N2748       N  0.96475654  0.89915996  0.32664240    -0.38630
N2749       N  0.80732776  0.90669826  0.38041459    -0.38070
N2750       N  0.50380919  0.92295646  0.38972068    -0.38080
C2751       C  0.57281111  0.93878127  0.41104353    -0.04740
C2752       C  0.57340073  0.89860806  0.40618871    -0.01860
C2753       C  0.58632394  0.88453443  0.38329370     0.03130
C2754       C  0.59559917  0.91084032  0.36416261    -0.04740
C2755       C  0.59532467  0.95120675  0.36971336    -0.01850
C2756       C  0.58725335  0.96416615  0.39378311     0.03130
C2757       C  0.55949080  0.87196164  0.42424746     0.37780
C2758       C  0.60101657  0.98018198  0.35063107     0.37770
C2759       C  0.59641016  0.50286490  0.40159376     0.36190
C2760       C  0.59004509  0.84310415  0.37969505     0.36190
N2761       N  0.60523726  0.53300487  0.40818828    -0.38630
N2762       N  0.59298129  0.81000423  0.37693565    -0.38630
N2763       N  0.60556720  0.00328498  0.33543256    -0.38070
N2764       N  0.54820826  0.85079458  0.43864553    -0.38080
C2765       C  0.88679551  0.62636193  0.36193530    -0.04740
C2766       C  0.90836631  0.59459180  0.36080627    -0.01860
C2767       C  0.92014738  0.57810603  0.38268375     0.03130
C2768       C  0.91469730  0.59661240  0.40615605    -0.04740
C2769       C  0.89385684  0.62989187  0.40701540    -0.01850
C2770       C  0.87931829  0.64396169  0.38497540     0.03130
C2771       C  0.91865160  0.57869942  0.33677091     0.37780
C2772       C  0.88693459  0.64990895  0.43025814     0.37770
C2773       C  0.85667136  0.67645636  0.38590228     0.36190
C2774       C  0.93582579  0.54050227  0.38031982     0.36190
N2775       N  0.83851580  0.70231179  0.38662744    -0.38630
N2776       N  0.94770744  0.51038447  0.37730061    -0.38630
N2777       N  0.88107085  0.66610560  0.44868446    -0.38070
N2778       N  0.92692738  0.56639590  0.31762928    -0.38080
C2779       C  0.59274810  0.63042617  0.36244953    -0.04740
C2780       C  0.59822263  0.64997760  0.38507488    -0.01860
C2781       C  0.58184476  0.63780552  0.40717557     0.03130
C2782       C  0.56046454  0.60517565  0.40679925    -0.04740
C2783       C  0.55439830  0.58687311  0.38325713    -0.01850
C2784       C  0.56956003  0.60039115  0.36144823     0.03130
C2785       C  0.62031710  0.68292744  0.38543802     0.37780
C2786       C  0.53425759  0.55231321  0.38066383     0.37770
C2787       C  0.56082010  0.58350192  0.33750315     0.36190
C2788       C  0.58655002  0.65968782  0.42991617     0.36190
N2789       N  0.55384152  0.57034211  0.31845093    -0.38630
N2790       N  0.59026047  0.67744514  0.44797288    -0.38630
N2791       N  0.51888555  0.52443412  0.37802952    -0.38070
N2792       N  0.63784326  0.70934385  0.38566976    -0.38080
C2793       C  0.64177823  0.86803429  0.12689423    -0.04740
C2794       C  0.62005205  0.85323456  0.10863274    -0.01860
C2795       C  0.63272418  0.83733005  0.08613091     0.03130
C2796       C  0.66676929  0.83924066  0.08079423    -0.04740
C2797       C  0.68767172  0.85791385  0.09768557    -0.01850
C2798       C  0.67588816  0.86969407  0.12116742     0.03130
C2799       C  0.58472324  0.85401361  0.11294344     0.37780
C2800       C  0.72144442  0.86601464  0.09062196     0.37770
C2801       C  0.69972818  0.88019838  0.13985952     0.36190
C2802       C  0.61100301  0.81748303  0.06910873     0.36190
N2803       N  0.71922273  0.88795795  0.15454374    -0.38630
N2804       N  0.59361795  0.80136313  0.05568572    -0.38630
N2805       N  0.74812479  0.87372570  0.08489755    -0.38070
N2806       N  0.55653052  0.85458161  0.11637981    -0.38080
C2807       C  0.81738709  0.83242458  0.08128479    -0.04740
C2808       C  0.82727977  0.80758422  0.10040684    -0.01860
C2809       C  0.83634185  0.82230513  0.12361436     0.03130
C2810       C  0.84250404  0.86241980  0.12658849    -0.04740
C2811       C  0.83706822  0.88737758  0.10612931    -0.01850
C2812       C  0.82361072  0.87258842  0.08379846     0.03130
C2813       C  0.83459570  0.76764708  0.09478024     0.37780
C2814       C  0.84544537  0.92811021  0.10786170     0.37770
C2815       C  0.81605788  0.89876868  0.06364461     0.36190
C2816       C  0.83807473  0.79564982  0.14442868     0.36190
N2817       N  0.80999750  0.91978591  0.04762588    -0.38630
N2818       N  0.83932718  0.77430095  0.16093803    -0.38630
N2819       N  0.85208334  0.96064381  0.10920959    -0.38070
N2820       N  0.84352257  0.73665371  0.09027673    -0.38080
C2821       C  0.66417945  0.66071225  0.07670921    -0.04740
C2822       C  0.68416030  0.64262496  0.09427496    -0.01860
C2823       C  0.67285472  0.63842222  0.11884624     0.03130
C2824       C  0.63895803  0.64316520  0.12478639    -0.04740
C2825       C  0.61729267  0.65403091  0.10548434    -0.01850
C2826       C  0.63020247  0.66495243  0.08189513     0.03130
C2827       C  0.71611872  0.62751532  0.08675850     0.37780
C2828       C  0.58200040  0.65456467  0.10986727     0.37770
C2829       C  0.60882966  0.68140835  0.06333155     0.36190
C2830       C  0.69712033  0.63527188  0.13819087     0.36190
N2831       N  0.59176064  0.69454176  0.04849362    -0.38630
N2832       N  0.71658154  0.63445450  0.15366693    -0.38630
N2833       N  0.55381269  0.65484403  0.11334468    -0.38070
N2834       N  0.74111305  0.61437743  0.08047365    -0.38080
C2835       C  0.81062621  0.66487113  0.08155277    -0.04740
C2836       C  0.84243530  0.64734374  0.08076488    -0.01860
C2837       C  0.85862711  0.63742449  0.10310714     0.03130
C2838       C  0.84319405  0.64412623  0.12631206    -0.04740
C2839       C  0.81152034  0.66045647  0.12737793    -0.01850
C2840       C  0.79534107  0.67094505  0.10550442     0.03130
C2841       C  0.86004591  0.64220450  0.05737818     0.37780
C2842       C  0.79620000  0.66875691  0.15147171     0.37770
C2843       C  0.76390326  0.69074940  0.10868266     0.36190
C2844       C  0.89171633  0.62159505  0.10237752     0.36190
N2845       N  0.73936419  0.70727879  0.11178287    -0.38630
N2846       N  0.91821436  0.60921971  0.10189172    -0.38630
N2847       N  0.78429598  0.67552401  0.17066798    -0.38070
N2848       N  0.87466211  0.63801967  0.03894192    -0.38080
C2849       C  0.91615405  0.93404297  0.58104553    -0.04740
C2850       C  0.92381159  0.89598773  0.58837010    -0.01860
C2851       C  0.91532795  0.88329004  0.61260644     0.03130
C2852       C  0.90097629  0.90950789  0.63001685    -0.04740
C2853       C  0.89287559  0.94744616  0.62218543    -0.01850
C2854       C  0.89877004  0.95860050  0.59750217     0.03130
C2855       C  0.94178864  0.87070661  0.57140473     0.37780
C2856       C  0.88073120  0.97627073  0.63981442     0.37770
C2857       C  0.88710100  0.49575888  0.58890273     0.36190
C2858       C  0.92177099  0.84352784  0.61960836     0.36190
N2859       N  0.87712996  0.52494782  0.58177984    -0.38630
N2860       N  0.92696273  0.81177073  0.62515972    -0.38630
N2861       N  0.87111940  0.99902897  0.65400676    -0.38070
N2862       N  0.95620153  0.85071647  0.55778072    -0.38080
C2863       C  0.89882536  0.62001219  0.62955349    -0.04740
C2864       C  0.87427840  0.61742812  0.61091578    -0.01860
C2865       C  0.88364555  0.61236662  0.58558043     0.03130
C2866       C  0.91723360  0.61247612  0.57881124    -0.04740
C2867       C  0.94024195  0.62522122  0.59614275    -0.01850
C2868       C  0.93229263  0.62484213  0.62154695     0.03130
C2869       C  0.83962940  0.61997184  0.61749945     0.37780
C2870       C  0.97229902  0.63849828  0.58749990     0.37770
C2871       C  0.95958538  0.62608006  0.63875092     0.36190
C2872       C  0.85905031  0.60630037  0.56667598     0.36190
N2873       N  0.98147017  0.62732070  0.65231940    -0.38630
N2874       N  0.83942139  0.60148522  0.55155921    -0.38630
N2875       N  0.49740594  0.65027748  0.58050418    -0.38070
N2876       N  0.81191735  0.62202517  0.62265511    -0.38080
C2877       C  0.58711300  0.91746806  0.62928993    -0.04740
C2878       C  0.59084103  0.95644658  0.62163730    -0.01860
C2879       C  0.58230573  0.96741993  0.59742336     0.03130
C2880       C  0.56528001  0.94165074  0.58190896    -0.04740
C2881       C  0.56289328  0.90235149  0.58870393    -0.01850
C2882       C  0.57479094  0.89000941  0.61203185     0.03130
C2883       C  0.60182359  0.98595700  0.63891739     0.37780
C2884       C  0.54857466  0.87471085  0.57161809     0.37770
C2885       C  0.57480735  0.84911466  0.61804110     0.36190
C2886       C  0.59486668  0.50324595  0.58724077     0.36190
N2887       N  0.57503881  0.81642821  0.62273554    -0.38630
N2888       N  0.60693284  0.53043793  0.57860211    -0.38630
N2889       N  0.53744412  0.85261284  0.55784421    -0.38070
N2890       N  0.61045154  0.00919294  0.65295708    -0.38080
C2891       C  0.59163206  0.60817317  0.63188261    -0.04740
C2892       C  0.56189861  0.58753953  0.63054655    -0.01860
C2893       C  0.54574600  0.58324908  0.60788093     0.03130
C2894       C  0.56070598  0.59631310  0.58500031    -0.04740
C2895       C  0.59107096  0.61671809  0.58647742    -0.01850
C2896       C  0.60622842  0.62285912  0.60989855     0.03130
C2897       C  0.54778446  0.56988654  0.65288579     0.37780
C2898       C  0.60758259  0.63016554  0.56408694     0.37770
C2899       C  0.63703435  0.64382638  0.61141881     0.36190
C2900       C  0.51362235  0.56446555  0.60909118     0.36190
N2901       N  0.66171642  0.66041809  0.61265870    -0.38630
N2902       N  0.98840605  0.54894133  0.61047068    -0.38630
N2903       N  0.62099789  0.64086265  0.54627737    -0.38070
N2904       N  0.53651238  0.55599471  0.67060125    -0.38080
C2905       C  0.63200743  0.63765988  0.86504523    -0.04740
C2906       C  0.64135730  0.61438941  0.88532999    -0.01860
C2907       C  0.65830875  0.63084631  0.90565112     0.03130
C2908       C  0.66621449  0.67087653  0.90587429    -0.04740
C2909       C  0.65714990  0.69383740  0.88527784    -0.01850
C2910       C  0.63976845  0.67751238  0.86532322     0.03130
C2911       C  0.63412346  0.57323402  0.88501540     0.37780
C2912       C  0.66685448  0.73412087  0.88352479     0.37770
C2913       C  0.63156466  0.70179546  0.84433110     0.36190
C2914       C  0.66981895  0.60575231  0.92529060     0.36190
N2915       N  0.62516865  0.72163687  0.82781556    -0.38630
N2916       N  0.67919011  0.58538744  0.94071212    -0.38630
N2917       N  0.67487999  0.76593387  0.88072277    -0.38070
N2918       N  0.62847808  0.54038105  0.88468222    -0.38080
C2919       C  0.82717806  0.83571881  0.91267530    -0.04740
C2920       C  0.82707972  0.87589698  0.90804604    -0.01860
C2921       C  0.84324422  0.89071060  0.88664920     0.03130
C2922       C  0.85868083  0.86522366  0.86928406    -0.04740
C2923       C  0.86092192  0.82533561  0.87533790    -0.01850
C2924       C  0.84708512  0.81145793  0.89774222     0.03130
C2925       C  0.81060598  0.90203077  0.92533514     0.37780
C2926       C  0.87527799  0.79762302  0.85805426     0.37770
C2927       C  0.85574721  0.77325581  0.90666123     0.36190
C2928       C  0.84374505  0.93219585  0.88247725     0.36190
N2929       N  0.86376869  0.74344967  0.91426662    -0.38630
N2930       N  0.84405467  0.96528791  0.87912703    -0.38630
N2931       N  0.88637940  0.77496508  0.84443995    -0.38070
N2932       N  0.79764812  0.92306052  0.93913867    -0.38080
C2933       C  0.66379863  0.83974114  0.91108960    -0.04740
C2934       C  0.63019784  0.83186054  0.90706760    -0.01860
C2935       C  0.61310949  0.85108095  0.88785512     0.03130
C2936       C  0.63008214  0.87749197  0.87184579    -0.04740
C2937       C  0.66050819  0.89199942  0.88102550    -0.01850
C2938       C  0.67869057  0.87051428  0.89826678     0.03130
C2939       C  0.61337014  0.80338409  0.92241927     0.37780
C2940       C  0.67033968  0.93187789  0.87679684     0.37770
C2941       C  0.71258325  0.88081465  0.90317075     0.36190
C2942       C  0.57755196  0.84817668  0.88789308     0.36190
N2943       N  0.73979294  0.88861173  0.90676714    -0.38630
N2944       N  0.54910466  0.84595300  0.88847525    -0.38630
N2945       N  0.67837849  0.96366341  0.87365824    -0.38070
N2946       N  0.59999459  0.78069074  0.93468530    -0.38080
C2947       C  0.81880149  0.66873338  0.90607831    -0.04740
C2948       C  0.83591173  0.63284862  0.90807043    -0.01860
C2949       C  0.85364987  0.61728229  0.88742113     0.03130
C2950       C  0.85497415  0.63730355  0.86464941    -0.04740
C2951       C  0.83766464  0.67240763  0.86228972    -0.01850
C2952       C  0.81935403  0.68778469  0.88249507     0.03130
C2953       C  0.83396690  0.61037203  0.93075985     0.37780
C2954       C  0.83751756  0.69204962  0.83841393     0.37770
C2955       C  0.80108697  0.72332647  0.87825732     0.36190
C2956       C  0.87001339  0.58006585  0.88935453     0.36190
N2957       N  0.78656616  0.75151335  0.87445187    -0.38630
N2958       N  0.88297682  0.55031067  0.89082933    -0.38630
N2959       N  0.83728270  0.70750761  0.81936355    -0.38070
N2960       N  0.83252335  0.59198368  0.94868912    -0.38080
loop_ 
_geom_bond_atom_site_label_1 
_geom_bond_atom_site_label_2 
_geom_bond_distance 
_geom_bond_site_symmetry_2 
_ccdc_geom_bond_type 
O1          Zr13   2.423       .  S
O1            C3   1.285       .  A
O2        Zr1519   2.487       .  S
O2            C3   1.298       .  A
C3           C65   1.495       .  S
O4          Zr16   2.404       .  S
O4            C6   1.279       .  A
O5          Zr40   2.467       .  S
O5            C6   1.294       .  A
C6          C190   1.468       .  S
O7          Zr16   2.389       .  S
O7            C9   1.278       .  A
O8        Zr1519   2.480       .  S
O8            C9   1.298       .  A
C9          C181   1.473       .  S
O10         Zr13   2.412       .  S
O10          C12   1.284       .  A
O11         Zr40   2.481       .  S
O11          C12   1.297       .  A
C12         C145   1.486       .  S
Zr13         O14   2.433       .  S
Zr13         O15   2.436       .  S
Zr13         O19   2.353       .  S
Zr13         O20   2.367       .  S
Zr13         O43   2.368       .  S
Zr13       O1525   2.365       .  S
O14          H57   0.990       .  S
O15          H56   0.989       .  S
O15          H60   0.990       .  S
Zr16         O17   2.438       .  S
Zr16         O18   2.437       .  S
Zr16         O20   2.359       .  S
Zr16         O19   2.359       .  S
Zr16         O46   2.360       .  S
Zr16       O1524   2.371       .  S
O17          H58   0.990       .  S
O17          H61   0.990       .  S
O18          H51   0.990       .  S
O19       Zr1519   2.380       .  S
O20         Zr40   2.392       .  S
O20          H47   0.966       .  S
O21         Zr33   2.420       .  S
O21          C23   1.285       .  A
O22       Zr1520   2.473   1_455  S
O22          C23   1.296       .  A
C23         C136   1.485       .  S
O24         Zr36   2.403       .  S
O24          C26   1.279       .  A
O25         Zr39   2.480   1_455  S
O25          C26   1.298       .  A
C26         C163   1.470       .  S
O27         Zr36   2.420       .  S
O27          C29   1.282       .  A
O28       Zr1520   2.469   1_455  S
O28          C29   1.295       .  A
C29         C172   1.475       .  S
O30         Zr33   2.424       .  S
O30          C32   1.286       .  A
O31         Zr39   2.477   1_455  S
O31          C32   1.297       .  A
C32         C156   1.489       .  S
Zr33         O34   2.438       .  S
Zr33         O35   2.436       .  S
Zr33         O41   2.365       .  S
Zr33         O42   2.351       .  S
Zr33         O45   2.374   1_455  S
Zr33       O1523   2.372   1_455  S
O34          H54   0.990       .  S
O34          H59   0.990       .  S
O35          H55   0.990       .  S
Zr36         O37   2.434       .  S
Zr36         O38   2.435       .  S
Zr36         O42   2.362       .  S
Zr36         O41   2.364       .  S
Zr36         O44   2.373   1_455  S
Zr36       O1526   2.360   1_455  S
O37          H53   0.990       .  S
O38          H52   0.990       .  S
O38          H62   0.990       .  S
Zr39       O1482   2.487       .  S
Zr39       O1488   2.480       .  S
Zr39         O42   2.388   1_655  S
Zr39         O44   2.410       .  S
Zr39         O45   2.405       .  S
Zr39       O1499   2.380       .  S
Zr40       O1502   2.473       .  S
Zr40       O1508   2.469       .  S
Zr40         O43   2.403       .  S
Zr40         O46   2.396       .  S
Zr40       O1521   2.395       .  S
O41       Zr1520   2.395   1_455  S
O41          H49   0.965       .  S
O43       Zr1513   2.372       .  S
O44       Zr1496   2.371       .  S
O44          H48   0.966       .  S
O45       Zr1493   2.365       .  S
O45          H50   0.966       .  S
O46       Zr1516   2.360       .  S
C63         C730   1.492       .  S
C63          C64   1.403       .  A
C63          C68   1.393       .  A
C64          C65   1.414       .  A
C64          H69   1.084       .  S
C65          C66   1.417       .  A
C66          C67   1.419       .  A
C66          H70   1.082       .  S
C67          C80   1.486       .  S
C67          C68   1.402       .  A
C68          H71   1.085       .  S
O72         Zr84   2.476       .  S
O72          C74   1.295       .  A
O73        Zr850   2.412   1_545  S
O73          C74   1.283       .  A
C74         C183   1.480       .  S
O75         Zr87   2.459       .  S
O75          C77   1.293       .  A
O76        Zr851   2.420   1_545  S
O76          C77   1.283       .  A
C77         C154   1.484       .  S
O78         Zr87   2.457       .  S
O78          C80   1.293       .  A
O79        Zr850   2.430   1_545  S
O79          C80   1.284       .  A
O81         Zr84   2.475       .  S
O81          C83   1.294       .  A
O82        Zr851   2.415   1_545  S
O82          C83   1.284       .  A
C83         C165   1.479       .  S
Zr84         O85   2.433       .  S
Zr84         O86   2.435       .  S
Zr84         O90   2.381       .  S
Zr84         O91   2.381       .  S
Zr84        O114   2.381   1_545  S
Zr84        O856   2.376   1_545  S
O85         H128   0.990       .  S
O86         H127   0.990       .  S
O86         H131   0.990       .  S
Zr87         O88   2.435       .  S
Zr87         O89   2.435       .  S
Zr87         O91   2.367       .  S
Zr87         O90   2.372       .  S
Zr87        O855   2.370   1_545  S
Zr87        O857   2.372   1_545  S
O88         H129   0.990       .  S
O88         H132   0.990       .  S
O89         H122   0.990       .  S
O90        Zr850   2.381   1_545  S
O91        Zr851   2.386   1_545  S
O91         H118   0.966       .  S
O92        Zr104   2.487       .  S
O92          C94   1.296       .  A
O93        Zr111   2.400       .  S
O93          C94   1.281       .  A
C94         C174   1.478       .  S
O95        Zr107   2.449       .  S
O95          C97   1.291       .  A
O96        Zr110   2.431       .  S
O96          C97   1.286       .  A
C97         C147   1.486       .  S
O98        Zr107   2.437       .  S
O98         C100   1.289       .  A
O99        Zr111   2.432       .  S
O99         C100   1.285       .  A
C100        C138   1.484       .  S
O101       Zr104   2.472       .  S
O101        C103   1.294       .  A
O102       Zr110   2.391       .  S
O102        C103   1.280       .  A
C103        C192   1.470       .  S
Zr104       O105   2.435       .  S
Zr104       O106   2.434       .  S
Zr104       O112   2.375       .  S
Zr104       O113   2.383       .  S
Zr104       O116   2.382       .  S
Zr104       O854   2.379       .  S
O105        H125   0.990       .  S
O105        H130   0.990       .  S
O106        H126   0.990       .  S
Zr107       O108   2.434       .  S
Zr107       O109   2.436       .  S
Zr107       O113   2.365       .  S
Zr107       O112   2.370       .  S
Zr107       O117   2.374       .  S
Zr107       O115   2.369       .  S
O108        H124   0.990       .  S
O109        H123   0.990       .  S
O109        H133   0.990       .  S
Zr110       O813   2.412       .  S
Zr110       O819   2.430       .  S
Zr110       O113   2.383       .  S
Zr110       O115   2.377       .  S
Zr110       O116   2.397       .  S
Zr110       O830   2.381       .  S
Zr111       O816   2.420       .  S
Zr111       O822   2.415       .  S
Zr111       O112   2.387       .  S
Zr111       O117   2.381       .  S
Zr111       O831   2.386       .  S
Zr111       O854   2.391       .  S
O112        H120   0.966       .  S
O114       Zr844   2.379       .  S
O114       Zr851   2.391       .  S
O115       Zr827   2.370       .  S
O115        H119   0.966       .  S
O116       Zr824   2.376       .  S
O116        H121   0.966       .  S
O117       Zr827   2.372       .  S
C134        C716   1.541       .  S
C134        C135   1.419       .  A
C134        C139   1.410       .  A
C135        C136   1.416       .  A
C135        H140   1.071       .  S
C136        C137   1.406       .  A
C137        C138   1.404       .  A
C137        H141   1.084       .  S
C138        C139   1.402       .  A
C139        H142   1.072       .  S
C143        C702   1.503       .  S
C143        C144   1.405       .  A
C143        C148   1.400       .  A
C144        C145   1.412       .  A
C144        H149   1.084       .  S
C145        C146   1.412       .  A
C146        C147   1.414       .  A
C146        H150   1.083       .  S
C147        C148   1.405       .  A
C148        H151   1.084       .  S
C152        C685   1.494       .  S
C152        C153   1.395       .  A
C152        C157   1.403       .  A
C153        C154   1.401       .  A
C153        H158   1.085       .  S
C154        C155   1.418       .  A
C155        C156   1.415       .  A
C155        H159   1.083       .  S
C156        C157   1.411       .  A
C157        H160   1.085       .  S
C161        C671   1.489       .  S
C161        C162   1.400       .  A
C161        C166   1.406       .  A
C162        C163   1.395       .  A
C162        H167   1.086       .  S
C163        C164   1.403       .  A
C164        C165   1.415       .  A
C164        H168   1.083       .  S
C165        C166   1.410       .  A
C166        H169   1.083       .  S
C170        C657   1.500       .  S
C170        C171   1.408       .  A
C170        C175   1.410       .  A
C171        C172   1.404       .  A
C171        H176   1.084       .  S
C172        C173   1.405       .  A
C173        C174   1.409       .  A
C173        H177   1.084       .  S
C174        C175   1.401       .  A
C175        H178   1.084       .  S
C179        C643   1.511       .  S
C179        C180   1.397       .  A
C179        C184   1.413       .  A
C180        C181   1.397       .  A
C180        H185   1.082       .  S
C181        C182   1.401       .  A
C182        C183   1.414       .  A
C182        H186   1.082       .  S
C183        C184   1.411       .  A
C184        H187   1.081       .  S
C188        C632   1.494       .  S
C188        C189   1.408       .  A
C188        C193   1.405       .  A
C189        C190   1.405       .  A
C189        H194   1.083       .  S
C190        C191   1.403       .  A
C191        C192   1.407       .  A
C191        H195   1.084       .  S
C192        C193   1.396       .  A
C193        H196   1.084       .  S
O197       Zr209   2.431       .  S
O197        C199   1.284       .  A
O198       Zr235   2.444       .  S
O198        C199   1.291       .  A
C199        C699   1.486       .  S
O200       Zr212   2.494   1_554  S
O200        C202   1.297       .  A
O201       Zr236   2.374       .  S
O201        C202   1.276       .  A
C202        C615   1.515       .  S
O203       Zr212   2.480       .  S
O203        C205   1.296       .  A
O204       Zr235   2.409       .  S
O204        C205   1.283       .  A
C205        C727   1.516       .  S
O206       Zr209   2.443   1_554  S
O206        C208   1.287       .  A
O207       Zr236   2.439       .  S
O207        C208   1.291       .  A
C208        C587   1.494       .  S
Zr209       O210   2.434       .  S
Zr209       O211   2.434       .  S
Zr209       O215   2.377       .  S
Zr209       O216   2.370   1_556  S
Zr209       O239   2.375   1_556  S
Zr209       O241   2.380       .  S
O210        H253   0.990       .  S
O211        H252   0.990       .  S
O211        H256   0.990       .  S
Zr212       O213   2.434       .  S
Zr212       O214   2.434       .  S
Zr212       O216   2.375   1_556  S
Zr212       O215   2.382       .  S
Zr212       O240   2.381       .  S
Zr212       O242   2.378   1_556  S
O213        H254   0.990   1_556  S
O213        H257   0.990       .  S
O214        H247   0.990       .  S
O215       Zr235   2.377       .  S
O216       Zr236   2.375       .  S
O216        H243   0.966       .  S
O217       Zr229   2.457   1_554  S
O217        C219   1.289       .  A
O218       Zr236   2.410       .  S
O218        C219   1.285       .  A
C219        C576   1.483       .  S
O220       Zr232   2.453       .  S
O220        C222   1.290       .  A
O221       Zr235   2.423       .  S
O221        C222   1.287       .  A
C222        C688   1.497       .  S
O223       Zr232   2.449   1_554  S
O223        C225   1.287       .  A
O224       Zr236   2.425       .  S
O224        C225   1.288       .  A
C225        C601   1.483       .  S
O226       Zr229   2.430       .  S
O226        C228   1.285       .  A
O227       Zr235   2.436       .  S
O227        C228   1.289       .  A
C228        C713   1.483       .  S
Zr229       O230   2.436       .  S
Zr229       O231   2.433       .  S
Zr229       O237   2.365   1_556  S
Zr229       O238   2.375       .  S
Zr229       O241   2.385       .  S
Zr229       O239   2.374   1_556  S
O230        H250   0.990   1_556  S
O230        H255   0.990   1_556  S
O231        H251   0.990   1_556  S
Zr232       O233   2.434       .  S
Zr232       O234   2.434       .  S
Zr232       O238   2.372       .  S
Zr232       O237   2.377   1_556  S
Zr232       O242   2.377   1_556  S
Zr232       O240   2.373       .  S
O233        H249   0.990       .  S
O234        H248   0.990   1_556  S
O234        H258   0.990       .  S
Zr235       O238   2.377       .  S
Zr235       O240   2.388       .  S
Zr235       O241   2.381       .  S
Zr236       O237   2.373       .  S
Zr236       O239   2.365       .  S
Zr236       O242   2.378       .  S
O237        H245   0.966       .  S
O240        H244   0.966       .  S
O241        H246   0.966       .  S
C259        C573   1.501       .  S
C259        C260   1.408       .  A
C259        C264   1.400       .  A
C260        C261   1.410       .  A
C260        H265   1.084       .  S
C261        C288   1.471       .  S
C261        C262   1.399       .  A
C262        C263   1.400       .  A
C262        H266   1.084       .  S
C263        C350   1.452       .  S
C263        C264   1.398       .  A
C264        H267   1.084       .  S
C268        C618   1.485       .  S
C268        C269   1.402       .  A
C268        C273   1.399       .  A
C269        C270   1.405       .  A
C269        H274   1.084       .  S
C270        C370   1.467       .  S
C270        C271   1.406       .  A
C271        C272   1.403       .  A
C271        H275   1.083       .  S
C272        C308   1.466       .  S
C272        C273   1.401       .  A
C273        H276   1.085       .  S
C277        C590   1.499       .  S
C277        C278   1.402       .  A
C277        C282   1.400       .  A
C278        C279   1.413       .  A
C278        H283   1.084       .  S
C279        C297   1.470       .  S
C279        C280   1.402       .  A
C280        C281   1.401       .  A
C280        H284   1.084       .  S
C281        C359   1.455       .  S
C281        C282   1.395       .  A
C282        H285   1.085       .  S
O286       Zr298   2.401       .  S
O286        C288   1.281       .  A
O287      Zr1064   2.459       .  S
O287        C288   1.293       .  A
O289       Zr301   2.409       .  S
O289        C291   1.280       .  A
O290      Zr1065   2.447       .  S
O290        C291   1.291       .  A
C291        C448   1.459       .  S
O292       Zr301   2.388       .  S
O292        C294   1.276       .  A
O293      Zr1064   2.452       .  S
O293        C294   1.293       .  A
C294        C441   1.452       .  S
O295       Zr298   2.379       .  S
O295        C297   1.277       .  A
O296      Zr1065   2.472       .  S
O296        C297   1.296       .  A
Zr298       O299   2.433       .  S
Zr298       O300   2.439       .  S
Zr298       O304   2.353       .  S
Zr298       O305   2.364       .  S
Zr298      O1068   2.356       .  S
Zr298      O1070   2.346       .  S
O299        H342   0.990       .  S
O300        H341   0.990       .  S
O300        H345   0.990       .  S
Zr301       O302   2.438       .  S
Zr301       O303   2.436       .  S
Zr301       O305   2.357       .  S
Zr301       O304   2.368       .  S
Zr301      O1069   2.373       .  S
Zr301      O1071   2.366       .  S
O302        H343   0.990       .  S
O302        H346   0.990       .  S
O303        H336   0.990       .  S
O304      Zr1064   2.381       .  S
O305      Zr1065   2.388       .  S
O305        H332   0.966       .  S
O306       Zr318   2.418       .  S
O306        C308   1.285       .  A
O307       Zr325   2.443       .  S
O307        C308   1.290       .  A
O309       Zr321   2.400       .  S
O309        C311   1.278       .  A
O310       Zr324   2.460       .  S
O310        C311   1.294       .  A
C311        C423   1.465       .  S
O312       Zr321   2.395       .  S
O312        C314   1.278       .  A
O313       Zr325   2.462       .  S
O313        C314   1.294       .  A
C314        C430   1.459       .  S
O315       Zr318   2.410       .  S
O315        C317   1.283       .  A
O316       Zr324   2.456       .  S
O316        C317   1.292       .  A
C317        C412   1.468       .  S
Zr318       O319   2.437       .  S
Zr318       O320   2.433       .  S
Zr318       O326   2.350       .  S
Zr318       O327   2.362       .  S
Zr318       O330   2.358       .  S
Zr318       O328   2.357       .  S
O319        H339   0.990       .  S
O319        H344   0.989       .  S
O320        H340   0.990       .  S
Zr321       O322   2.434       .  S
Zr321       O323   2.435       .  S
Zr321       O327   2.365       .  S
Zr321       O326   2.370       .  S
Zr321       O331   2.364       .  S
Zr321       O329   2.360       .  S
O322        H338   0.990       .  S
O323        H337   0.990       .  S
O323        H347   0.990       .  S
Zr324      O1027   2.459   1_545  S
Zr324      O1033   2.452   1_545  S
Zr324       O327   2.381       .  S
Zr324       O329   2.401       .  S
Zr324       O330   2.383       .  S
Zr324      O1044   2.381   1_545  S
Zr325      O1030   2.447   1_545  S
Zr325      O1036   2.472   1_545  S
Zr325       O326   2.391       .  S
Zr325       O328   2.382       .  S
Zr325       O331   2.396       .  S
Zr325      O1045   2.388   1_545  S
O326        H334   0.965       .  S
O328      Zr1038   2.356   1_545  S
O329      Zr1041   2.373   1_545  S
O329        H333   0.966       .  S
O330      Zr1038   2.346   1_545  S
O330        H335   0.966       .  S
O331      Zr1041   2.366   1_545  S
O348       Zr360   2.411   1_455  S
O348        C350   1.281       .  A
O349       Zr386   2.427       .  S
O349        C350   1.287       .  A
O351      Zr1843   2.393       .  S
O351        C353   1.280       .  A
O352       Zr387   2.467       .  S
O352        C353   1.294       .  A
C353        C450   1.474       .  S
O354       Zr363   2.378   1_455  S
O354        C356   1.276       .  A
O355       Zr386   2.468       .  S
O355        C356   1.295       .  A
C356        C439   1.469       .  S
O357      Zr1840   2.397       .  S
O357        C359   1.278       .  A
O358       Zr387   2.455       .  S
O358        C359   1.294       .  A
Zr360      O1837   2.397       .  S
Zr360       O361   2.433       .  S
Zr360      O1842   2.435       .  S
Zr360       O366   2.362   1_655  S
Zr360       O392   2.361   1_655  S
Zr360      O1847   2.371       .  S
Zr360      O1870   2.371       .  S
O361        H404   0.990       .  S
O362      Zr1840   2.435       .  S
O362       H1883   0.990       .  S
O362       H1887   0.990       .  S
Zr363      O1831   2.393       .  S
Zr363       O364   2.439       .  S
Zr363      O1845   2.435       .  S
Zr363       O366   2.357   1_655  S
Zr363       O391   2.359   1_655  S
Zr363      O1847   2.346       .  S
Zr363      O1873   2.355       .  S
O364        H408   0.990   1_655  S
O364       H1885   0.990       .  S
O365      Zr1843   2.435       .  S
O365       H1878   0.990       .  S
O366       Zr386   2.374       .  S
O367       Zr387   2.383       .  S
O367      Zr1840   2.371       .  S
O367      Zr1843   2.346       .  S
O367        H394   0.965       .  S
O368       Zr380   2.419       .  S
O368        C370   1.282       .  A
O369       Zr387   2.457       .  S
O369        C370   1.293       .  A
O371      Zr1863   2.414   1_455  S
O371        C373   1.283       .  A
O372       Zr386   2.429       .  S
O372        C373   1.287       .  A
C373        C421   1.459       .  S
O374       Zr383   2.403       .  S
O374        C376   1.281       .  A
O375       Zr387   2.446       .  S
O375        C376   1.290       .  A
C376        C432   1.463       .  S
O377      Zr1860   2.412   1_455  S
O377        C379   1.282       .  A
O378       Zr386   2.449       .  S
O378        C379   1.291       .  A
C379        C414   1.463       .  S
Zr380      O1857   2.412       .  S
Zr380       O381   2.437       .  S
Zr380       O382   2.435       .  S
Zr380       O388   2.368       .  S
Zr380       O390   2.369       .  S
Zr380      O1869   2.370       .  S
Zr380      O1872   2.367       .  S
O381        H401   0.990       .  S
O381        H406   0.990       .  S
O382        H402   0.990       .  S
Zr383      O1851   2.414       .  S
Zr383       O384   2.434       .  S
Zr383       O385   2.436       .  S
Zr383       O388   2.359       .  S
Zr383       O393   2.363       .  S
Zr383      O1869   2.356       .  S
Zr383      O1871   2.356       .  S
O384       H1880   0.990       .  S
O385        H399   0.990       .  S
O385        H409   0.990       .  S
Zr386       O389   2.384       .  S
Zr386       O391   2.384       .  S
Zr386       O392   2.395       .  S
Zr387       O388   2.395       .  S
Zr387       O390   2.398       .  S
Zr387       O393   2.387       .  S
O388        H396   0.966       .  S
O389      Zr1860   2.370   1_455  S
O389      Zr1863   2.356   1_455  S
O390      Zr1840   2.371       .  S
O391      Zr1863   2.356   1_455  S
O391        H395   0.966       .  S
O392      Zr1860   2.367   1_455  S
O392        H397   0.966       .  S
O393      Zr1843   2.355       .  S
H398       O1845   0.990       .  S
H400       O1864   0.990   1_455  S
H403       O1842   0.990   1_455  S
H405       O1844   0.990       .  S
H407       O1842   0.990       .  S
C410        C604   1.504       .  S
C410        C411   1.406       .  A
C410        C415   1.406       .  A
C411        C412   1.404       .  A
C411        H416   1.084       .  S
C412        C413   1.399       .  A
C413        C414   1.403       .  A
C413        H417   1.083       .  S
C414        C415   1.405       .  A
C415        H418   1.083       .  S
C419        C559   1.480       .  S
C419        C420   1.395       .  A
C419        C424   1.403       .  A
C420        C421   1.401       .  A
C420        H425   1.085       .  S
C421        C422   1.402       .  A
C422        C423   1.402       .  A
C422        H426   1.083       .  S
C423        C424   1.403       .  A
C424        H427   1.085       .  S
C428        C545   1.479       .  S
C428        C429   1.397       .  A
C428        C433   1.396       .  A
C429        C430   1.397       .  A
C429        H434   1.085       .  S
C430        C431   1.403       .  A
C431        C432   1.404       .  A
C431        H435   1.083       .  S
C432        C433   1.406       .  A
C433        H436   1.085       .  S
C437        C534   1.505       .  S
C437        C438   1.407       .  A
C437        C442   1.399       .  A
C438        C439   1.414       .  A
C438        H443   1.083       .  S
C439        C440   1.399       .  A
C440        C441   1.397       .  A
C440        H444   1.084       .  S
C441        C442   1.395       .  A
C442        H445   1.084       .  S
C446        C520   1.495       .  S
C446        C447   1.400       .  A
C446        C451   1.404       .  A
C447        C448   1.401       .  A
C447        H452   1.084       .  S
C448        C449   1.405       .  A
C449        C450   1.402       .  A
C449        H453   1.084       .  S
C450        C451   1.409       .  A
C451        H454   1.085       .  S
O455       Zr467   2.451       .  S
O455        C457   1.288       .  A
O456      Zr2713   2.424   1_455  S
O456        C457   1.286       .  A
C457        C660   1.485       .  S
O458       Zr470   2.492       .  S
O458        C460   1.296       .  A
O459      Zr1974   2.367   1_455  S
O459        C460   1.273       .  A
C460        C562   1.512       .  S
O461       Zr470   2.506       .  S
O461        C463   1.297       .  A
O462      Zr1973   2.344   1_455  S
O462        C463   1.267       .  A
C463        C674   1.518       .  S
O464       Zr467   2.438       .  S
O464        C466   1.285       .  A
O465      Zr2714   2.423   1_455  S
O465        C466   1.287       .  A
C466        C531   1.482       .  S
Zr467       O468   2.434       .  S
Zr467       O469   2.434       .  S
Zr467      O1213   2.370       .  S
Zr467      O1214   2.379       .  S
Zr467      O1977   2.382   1_455  S
Zr467      O1979   2.374   1_455  S
O468       H1251   0.990       .  S
O469        H510   0.990       .  S
O469        H514   0.990       .  S
Zr470       O471   2.435       .  S
Zr470       O472   2.435       .  S
Zr470       O474   2.385       .  S
Zr470       O473   2.380       .  S
Zr470      O1978   2.382   1_455  S
Zr470      O1980   2.387   1_455  S
O471        H512   0.990       .  S
O471        H515   0.990       .  S
O472        H505   0.990       .  S
O473      Zr1207   2.370   1_545  S
O473      Zr1973   2.364   1_455  S
O474      Zr1207   2.379   1_545  S
O474      Zr1974   2.375   1_455  S
O474        H501   0.966       .  S
O475       Zr487   2.459       .  S
O475        C477   1.290       .  A
O476      Zr1234   2.408       .  S
O476        C477   1.284       .  A
C477        C517   1.494       .  S
O478       Zr490   2.448       .  S
O478        C480   1.286       .  A
O479       Zr493   2.417       .  S
O479        C480   1.287       .  A
C480        C646   1.482       .  S
O481       Zr490   2.464       .  S
O481        C483   1.290       .  A
O482       Zr494   2.397       .  S
O482        C483   1.281       .  A
C483        C548   1.507       .  S
O484       Zr487   2.462       .  S
O484        C486   1.290       .  A
O485      Zr1233   2.385       .  S
O485        C486   1.280       .  A
C486        C629   1.476       .  S
Zr487       O488   2.433       .  S
Zr487       O489   2.433       .  S
Zr487       O499   2.374       .  S
Zr487       O497   2.384       .  S
Zr487      O1235   2.375       .  S
Zr487      O1236   2.379       .  S
O488        H508   0.990       .  S
O488        H513   0.990       .  S
O489        H509   0.990       .  S
Zr490       O491   2.434       .  S
Zr490       O492   2.435       .  S
Zr490       O496   2.387       .  S
Zr490       O495   2.376       .  S
Zr490       O500   2.374       .  S
Zr490       O498   2.384       .  S
O491        H507   0.990       .  S
O492        H506   0.990       .  S
O492        H516   0.990       .  S
Zr493      O2676   2.424   1_545  S
Zr493      O1942   2.344       .  S
Zr493      O1225   2.385   1_545  S
Zr493       O496   2.362       .  S
Zr493       O498   2.375       .  S
Zr493      O1953   2.364       .  S
Zr493      O1239   2.361   1_545  S
Zr494      O1939   2.367       .  S
Zr494      O2685   2.423   1_545  S
Zr494      O1216   2.408   1_545  S
Zr494       O495   2.367       .  S
Zr494       O500   2.371       .  S
Zr494      O1954   2.375       .  S
Zr494      O1237   2.365   1_545  S
O495      Zr1227   2.375   1_545  S
O495        H503   0.966       .  S
O496      Zr1227   2.379   1_545  S
O497      Zr1947   2.382       .  S
O497      Zr1234   2.365       .  S
O498      Zr1950   2.382       .  S
O498        H502   0.966       .  S
O499      Zr1947   2.374       .  S
O499      Zr1233   2.361       .  S
O499        H504   0.966       .  S
O500      Zr1950   2.387       .  S
H511       O1208   0.990       .  S
C517        C518   1.414       .  A
C517        C522   1.417       .  A
C518        C519   1.404       .  A
C518        C523   1.449       .  S
C519        C520   1.412       .  A
C519        C526   1.450       .  S
C520        C521   1.414       .  A
C521        C522   1.417       .  A
C521        C524   1.450       .  S
C522        C525   1.449       .  S
C523       N2010   1.155       .  T
C524        N529   1.157       .  T
C525        N527   1.157       .  T
C526        N528   1.156       .  T
N530       C2003   1.155   1_455  T
C531        C532   1.410       .  A
C531        C536   1.402       .  A
C532        C533   1.416       .  A
C532        C537   1.450       .  S
C533        C534   1.422       .  A
C533        C540   1.450       .  S
C534        C535   1.424       .  A
C535        C536   1.402       .  A
C535        C538   1.452       .  S
C536       C1279   1.449       .  S
C537        N544   1.157       .  T
C538        N543   1.158       .  T
C539       C1276   1.449   1_545  S
C539        N541   1.156       .  T
C540        N542   1.157       .  T
C545        C546   1.404       .  A
C545        C550   1.407       .  A
C546        C547   1.399       .  A
C546        C551   1.458       .  S
C547        C548   1.427       .  A
C547        C554   1.450       .  S
C548        C549   1.427       .  A
C549        C550   1.418       .  A
C549        C552   1.450       .  S
C550        C553   1.450       .  S
C551        N558   1.157       .  T
C552        N557   1.157       .  T
C553        N555   1.157       .  T
C554        N556   1.156       .  T
C559        C560   1.409       .  A
C559        C564   1.402       .  A
C560        C561   1.420       .  A
C560        C565   1.450       .  S
C561        C562   1.423       .  A
C561        C568   1.449       .  S
C562        C563   1.436       .  A
C563        C564   1.399       .  A
C563        C566   1.454       .  S
C564        C567   1.459       .  S
C565        N572   1.157       .  T
C566        N571   1.157       .  T
C567        N569   1.157       .  T
C568        N570   1.157       .  T
C573        C574   1.422       .  A
C573        C578   1.416       .  A
C574        C575   1.417       .  A
C574        C579   1.450       .  S
C575        C576   1.410       .  A
C575        C582   1.450       .  S
C576        C577   1.406       .  A
C577        C578   1.403       .  A
C577        C580   1.446       .  S
C578        C581   1.450       .  S
C579        N586   1.157       .  T
C580        N585   1.154       .  T
C581        N583   1.156       .  T
C582        N584   1.157       .  T
C587        C588   1.404       .  A
C587        C592   1.416       .  A
C588        C589   1.399       .  A
C588        C593   1.440       .  S
C589        C590   1.416       .  A
C589        C596   1.454       .  S
C590        C591   1.420       .  A
C591        C592   1.419       .  A
C591        C594   1.450       .  S
C592        C595   1.450       .  S
C593        N600   1.153       .  T
C594        N599   1.157       .  T
C595        N597   1.157       .  T
C596        N598   1.158       .  T
C601        C602   1.401       .  A
C601        C606   1.411       .  A
C602        C603   1.401       .  A
C602        C607   1.450       .  S
C603        C604   1.418       .  A
C603        C610   1.446       .  S
C604        C605   1.421       .  A
C605        C606   1.419       .  A
C605        C608   1.449       .  S
C606        C609   1.449       .  S
C607        N614   1.157       .  T
C608        N613   1.157       .  T
C609        N611   1.157       .  T
C610        N612   1.155       .  T
C615        C616   1.426       .  A
C615        C620   1.437       .  A
C616        C617   1.420       .  A
C616        C621   1.449       .  S
C617        C618   1.407       .  A
C617        C624   1.450       .  S
C618        C619   1.404       .  A
C619        C620   1.403       .  A
C619        C622   1.457       .  S
C620        C623   1.455       .  S
C621        N628   1.157       .  T
C622        N627   1.157       .  T
C623        N625   1.158       .  T
C624        N626   1.157       .  T
C629        C630   1.409       .  A
C629        C634   1.406       .  A
C630        C631   1.415       .  A
C630        C635   1.450       .  S
C631        C632   1.419       .  A
C631        C638   1.449       .  S
C632        C633   1.417       .  A
C633        C634   1.401       .  A
C633        C636   1.453       .  S
C634       C1377   1.447       .  S
C635        N642   1.157       .  T
C636        N641   1.157       .  T
C637       C1374   1.447       .  S
C637        N639   1.154   1_565  T
C638        N640   1.157       .  T
C643        C644   1.425       .  A
C643        C648   1.430       .  A
C644        C645   1.420       .  A
C644        C649   1.449       .  S
C645        C646   1.407       .  A
C645        C652   1.449       .  S
C646        C647   1.398       .  A
C647        C648   1.400       .  A
C647        C650   1.452       .  S
C648        C651   1.453       .  S
C649        N656   1.157       .  T
C650       N2135   1.157       .  T
C651        N653   1.158       .  T
C652        N654   1.157       .  T
N655       C2130   1.157       .  T
C657        C658   1.416       .  A
C657        C662   1.420       .  A
C658        C659   1.405       .  A
C658        C663   1.450       .  S
C659        C660   1.405       .  A
C659       C1406   1.445       .  S
C660        C661   1.410       .  A
C661        C662   1.417       .  A
C661        C664   1.449       .  S
C662        C665   1.450       .  S
C663        N670   1.157       .  T
C664        N669   1.157       .  T
C665        N667   1.157       .  T
C666       C1399   1.445   1_545  S
C666        N668   1.156       .  T
C671        C672   1.405       .  A
C671        C676   1.412       .  A
C672        C673   1.399       .  A
C672        C677   1.460       .  S
C673        C674   1.439       .  A
C673        C680   1.458       .  S
C674        C675   1.424       .  A
C675        C676   1.424       .  A
C675        C678   1.449       .  S
C676        C679   1.449       .  S
C677        N684   1.157       .  T
C678        N683   1.158       .  T
C679        N681   1.157       .  T
C680       N2162   1.158   1_455  T
N682       C2160   1.158       .  T
C685        C686   1.413       .  A
C685        C690   1.412       .  A
C686        C687   1.416       .  A
C686        C691   1.451       .  S
C687        C688   1.419       .  A
C687        C694   1.450       .  S
C688        C689   1.417       .  A
C689        C690   1.408       .  A
C689        C692   1.449       .  S
C690        C693   1.451       .  S
C691        N698   1.157       .  T
C692        N697   1.156       .  T
C693        N695   1.156       .  T
C694        N696   1.157       .  T
C699        C700   1.410       .  A
C699        C704   1.406       .  A
C700        C701   1.415       .  A
C700        C705   1.450       .  S
C701        C702   1.420       .  A
C701        C708   1.451       .  S
C702        C703   1.419       .  A
C703        C704   1.409       .  A
C703        C706   1.448       .  S
C704        C707   1.450       .  S
C705        N712   1.157       .  T
C706        N711   1.156       .  T
C707        N709   1.157       .  T
C708        N710   1.157       .  T
C713        C714   1.411       .  A
C713        C718   1.402       .  A
C714        C715   1.419       .  A
C714        C719   1.452       .  S
C715        C716   1.428       .  A
C715        C722   1.447       .  S
C716        C717   1.427       .  A
C717        C718   1.406       .  A
C717        C720   1.452       .  S
C718        C721   1.449       .  S
C719        N726   1.157       .  T
C720        N725   1.157       .  T
C721        N723   1.156       .  T
C722        N724   1.158       .  T
C727        C728   1.425       .  A
C727        C732   1.431       .  A
C728        C729   1.419       .  A
C728        C733   1.450       .  S
C729        C730   1.409       .  A
C729        C736   1.451       .  S
C730        C731   1.407       .  A
C731        C732   1.410       .  A
C731        C734   1.454       .  S
C732        C735   1.454       .  S
C733        N740   1.157       .  T
C734        N739   1.157       .  T
C735        N737   1.158       .  T
C736        N738   1.157       .  T
O741       Zr753   2.423       .  S
O741        C743   1.285       .  A
O742      Zr2259   2.487       .  S
O742        C743   1.298       .  A
C743        C805   1.495       .  S
O744       Zr756   2.404       .  S
O744        C746   1.279       .  A
O745       Zr780   2.467       .  S
O745        C746   1.294       .  A
C746        C930   1.468       .  S
O747       Zr756   2.389       .  S
O747        C749   1.278       .  A
O748      Zr2259   2.480       .  S
O748        C749   1.298       .  A
C749        C921   1.473       .  S
O750       Zr753   2.412       .  S
O750        C752   1.284       .  A
O751       Zr780   2.481       .  S
O751        C752   1.297       .  A
C752        C885   1.486       .  S
Zr753       O754   2.433       .  S
Zr753       O755   2.436       .  S
Zr753       O759   2.353       .  S
Zr753       O760   2.367       .  S
Zr753       O783   2.368       .  S
Zr753      O2265   2.365       .  S
O754        H797   0.990       .  S
O755        H796   0.989       .  S
O755        H800   0.990       .  S
Zr756       O757   2.438       .  S
Zr756       O758   2.437       .  S
Zr756       O760   2.359       .  S
Zr756       O759   2.359       .  S
Zr756      O2264   2.371       .  S
Zr756       O786   2.360       .  S
O757        H798   0.990       .  S
O757        H801   0.990       .  S
O758        H791   0.990       .  S
O759      Zr2259   2.380       .  S
O760       Zr780   2.392       .  S
O760        H787   0.966       .  S
O761       Zr773   2.420       .  S
O761        C763   1.285       .  A
O762      Zr2260   2.473   1_455  S
O762        C763   1.296       .  A
C763        C876   1.485       .  S
O764       Zr776   2.403       .  S
O764        C766   1.279       .  A
O765       Zr779   2.480   1_455  S
O765        C766   1.298       .  A
C766        C903   1.470       .  S
O767       Zr776   2.420       .  S
O767        C769   1.282       .  A
O768      Zr2260   2.469   1_455  S
O768        C769   1.295       .  A
C769        C912   1.475       .  S
O770       Zr773   2.424       .  S
O770        C772   1.286       .  A
O771       Zr779   2.477   1_455  S
O771        C772   1.297       .  A
C772        C896   1.489       .  S
Zr773       O774   2.438       .  S
Zr773       O775   2.436       .  S
Zr773       O781   2.365       .  S
Zr773       O782   2.351       .  S
Zr773       O785   2.374   1_455  S
Zr773      O2263   2.372   1_455  S
O774        H794   0.990       .  S
O774        H799   0.990       .  S
O775        H795   0.990       .  S
Zr776       O777   2.434       .  S
Zr776       O778   2.435       .  S
Zr776       O782   2.362       .  S
Zr776       O781   2.364       .  S
Zr776      O2266   2.360   1_455  S
Zr776       O784   2.373   1_455  S
O777        H793   0.990       .  S
O778        H792   0.990       .  S
O778        H802   0.990       .  S
Zr779      O2222   2.487       .  S
Zr779      O2228   2.480       .  S
Zr779      O2239   2.380       .  S
Zr779       O782   2.388   1_655  S
Zr779       O784   2.410       .  S
Zr779       O785   2.405       .  S
Zr780      O2242   2.473       .  S
Zr780      O2248   2.469       .  S
Zr780      O2261   2.395       .  S
Zr780       O783   2.403       .  S
Zr780       O786   2.396       .  S
O781      Zr2260   2.395   1_455  S
O781        H789   0.965       .  S
O783      Zr2253   2.372       .  S
O784      Zr2236   2.371       .  S
O784        H788   0.966       .  S
O785      Zr2233   2.365       .  S
O785        H790   0.966       .  S
O786      Zr2256   2.360       .  S
C803       C1470   1.492       .  S
C803        C804   1.403       .  A
C803        C808   1.393       .  A
C804        C805   1.414       .  A
C804        H809   1.084       .  S
C805        C806   1.417       .  A
C806        C807   1.419       .  A
C806        H810   1.082       .  S
C807        C820   1.486       .  S
C807        C808   1.402       .  A
C808        H811   1.085       .  S
O812       Zr824   2.476       .  S
O812        C814   1.295       .  A
O813        C814   1.283       .  A
C814        C923   1.480       .  S
O815       Zr827   2.459       .  S
O815        C817   1.293       .  A
O816        C817   1.283       .  A
C817        C894   1.484       .  S
O818       Zr827   2.457       .  S
O818        C820   1.293       .  A
O819        C820   1.284       .  A
O821       Zr824   2.475       .  S
O821        C823   1.294       .  A
O822        C823   1.284       .  A
C823        C905   1.479       .  S
Zr824       O825   2.433       .  S
Zr824       O826   2.435       .  S
Zr824       O830   2.381       .  S
Zr824       O831   2.381       .  S
Zr824       O854   2.381       .  S
O825        H868   0.990       .  S
O826        H867   0.990       .  S
O826        H871   0.990       .  S
Zr827       O828   2.435       .  S
Zr827       O829   2.435       .  S
Zr827       O831   2.367       .  S
Zr827       O830   2.372       .  S
O828        H869   0.990       .  S
O828        H872   0.990       .  S
O829        H862   0.990       .  S
O831        H858   0.966       .  S
O832       Zr844   2.487       .  S
O832        C834   1.296       .  A
O833       Zr851   2.400       .  S
O833        C834   1.281       .  A
C834        C914   1.478       .  S
O835       Zr847   2.449       .  S
O835        C837   1.291       .  A
O836       Zr850   2.431       .  S
O836        C837   1.286       .  A
C837        C887   1.486       .  S
O838       Zr847   2.437       .  S
O838        C840   1.289       .  A
O839       Zr851   2.432       .  S
O839        C840   1.285       .  A
C840        C878   1.484       .  S
O841       Zr844   2.472       .  S
O841        C843   1.294       .  A
O842       Zr850   2.391       .  S
O842        C843   1.280       .  A
C843        C932   1.470       .  S
Zr844       O845   2.435       .  S
Zr844       O846   2.434       .  S
Zr844       O852   2.375       .  S
Zr844       O853   2.383       .  S
Zr844       O856   2.382       .  S
O845        H865   0.990       .  S
O845        H870   0.990       .  S
O846        H866   0.990       .  S
Zr847       O848   2.434       .  S
Zr847       O849   2.436       .  S
Zr847       O853   2.365       .  S
Zr847       O852   2.370       .  S
Zr847       O857   2.374       .  S
Zr847       O855   2.369       .  S
O848        H864   0.990       .  S
O849        H863   0.990       .  S
O849        H873   0.990       .  S
Zr850       O853   2.383       .  S
Zr850       O855   2.377       .  S
Zr850       O856   2.397       .  S
Zr851       O852   2.387       .  S
Zr851       O857   2.381       .  S
O852        H860   0.966       .  S
O855        H859   0.966       .  S
O856        H861   0.966       .  S
C874       C1456   1.541       .  S
C874        C875   1.419       .  A
C874        C879   1.410       .  A
C875        C876   1.416       .  A
C875        H880   1.071       .  S
C876        C877   1.406       .  A
C877        C878   1.404       .  A
C877        H881   1.084       .  S
C878        C879   1.402       .  A
C879        H882   1.072       .  S
C883       C1442   1.503       .  S
C883        C884   1.405       .  A
C883        C888   1.400       .  A
C884        C885   1.412       .  A
C884        H889   1.084       .  S
C885        C886   1.412       .  A
C886        C887   1.414       .  A
C886        H890   1.083       .  S
C887        C888   1.405       .  A
C888        H891   1.084       .  S
C892       C1425   1.494       .  S
C892        C893   1.395       .  A
C892        C897   1.403       .  A
C893        C894   1.401       .  A
C893        H898   1.085       .  S
C894        C895   1.418       .  A
C895        C896   1.415       .  A
C895        H899   1.083       .  S
C896        C897   1.411       .  A
C897        H900   1.085       .  S
C901       C1411   1.489       .  S
C901        C902   1.400       .  A
C901        C906   1.406       .  A
C902        C903   1.395       .  A
C902        H907   1.086       .  S
C903        C904   1.403       .  A
C904        C905   1.415       .  A
C904        H908   1.083       .  S
C905        C906   1.410       .  A
C906        H909   1.083       .  S
C910       C1397   1.500       .  S
C910        C911   1.408       .  A
C910        C915   1.410       .  A
C911        C912   1.404       .  A
C911        H916   1.084       .  S
C912        C913   1.405       .  A
C913        C914   1.409       .  A
C913        H917   1.084       .  S
C914        C915   1.401       .  A
C915        H918   1.084       .  S
C919       C1383   1.511       .  S
C919        C920   1.397       .  A
C919        C924   1.413       .  A
C920        C921   1.397       .  A
C920        H925   1.082       .  S
C921        C922   1.401       .  A
C922        C923   1.414       .  A
C922        H926   1.082       .  S
C923        C924   1.411       .  A
C924        H927   1.081       .  S
C928       C1372   1.494       .  S
C928        C929   1.408       .  A
C928        C933   1.405       .  A
C929        C930   1.405       .  A
C929        H934   1.083       .  S
C930        C931   1.403       .  A
C931        C932   1.407       .  A
C931        H935   1.084       .  S
C932        C933   1.396       .  A
C933        H936   1.084       .  S
O937       Zr949   2.431       .  S
O937        C939   1.284       .  A
O938       Zr975   2.444       .  S
O938        C939   1.291       .  A
C939       C1439   1.486       .  S
O940       Zr952   2.494   1_554  S
O940        C942   1.297       .  A
O941       Zr976   2.374       .  S
O941        C942   1.276       .  A
C942       C1355   1.515       .  S
O943       Zr952   2.480       .  S
O943        C945   1.296       .  A
O944       Zr975   2.409       .  S
O944        C945   1.283       .  A
C945       C1467   1.516       .  S
O946       Zr949   2.443   1_554  S
O946        C948   1.287       .  A
O947       Zr976   2.439       .  S
O947        C948   1.291       .  A
C948       C1327   1.494       .  S
Zr949       O950   2.434       .  S
Zr949       O951   2.434       .  S
Zr949       O955   2.377       .  S
Zr949       O956   2.370   1_556  S
Zr949       O979   2.375   1_556  S
Zr949       O981   2.380       .  S
O950        H993   0.990       .  S
O951        H992   0.990       .  S
O951        H996   0.990       .  S
Zr952       O953   2.434       .  S
Zr952       O954   2.434       .  S
Zr952       O956   2.375   1_556  S
Zr952       O955   2.382       .  S
Zr952       O980   2.381       .  S
Zr952       O982   2.378   1_556  S
O953        H994   0.990   1_556  S
O953        H997   0.990       .  S
O954        H987   0.990       .  S
O955       Zr975   2.377       .  S
O956       Zr976   2.375       .  S
O956        H983   0.966       .  S
O957       Zr969   2.457   1_554  S
O957        C959   1.289       .  A
O958       Zr976   2.410       .  S
O958        C959   1.285       .  A
C959       C1316   1.483       .  S
O960       Zr972   2.453       .  S
O960        C962   1.290       .  A
O961       Zr975   2.423       .  S
O961        C962   1.287       .  A
C962       C1428   1.497       .  S
O963       Zr972   2.449   1_554  S
O963        C965   1.287       .  A
O964       Zr976   2.425       .  S
O964        C965   1.288       .  A
C965       C1341   1.483       .  S
O966       Zr969   2.430       .  S
O966        C968   1.285       .  A
O967       Zr975   2.436       .  S
O967        C968   1.289       .  A
C968       C1453   1.483       .  S
Zr969       O970   2.436       .  S
Zr969       O971   2.433       .  S
Zr969       O977   2.365   1_556  S
Zr969       O978   2.375       .  S
Zr969       O981   2.385       .  S
Zr969       O979   2.374   1_556  S
O970        H990   0.990   1_556  S
O970        H995   0.990   1_556  S
O971        H991   0.990   1_556  S
Zr972       O973   2.434       .  S
Zr972       O974   2.434       .  S
Zr972       O978   2.372       .  S
Zr972       O977   2.377   1_556  S
Zr972       O982   2.377   1_556  S
Zr972       O980   2.373       .  S
O973        H989   0.990       .  S
O974        H988   0.990   1_556  S
O974        H998   0.990       .  S
Zr975       O978   2.377       .  S
Zr975       O980   2.388       .  S
Zr975       O981   2.381       .  S
Zr976       O977   2.373       .  S
Zr976       O979   2.365       .  S
Zr976       O982   2.378       .  S
O977        H985   0.966       .  S
O980        H984   0.966       .  S
O981        H986   0.966       .  S
C999       C1313   1.501       .  S
C999       C1000   1.408       .  A
C999       C1004   1.400       .  A
C1000      C1001   1.410       .  A
C1000      H1005   1.084       .  S
C1001      C1028   1.471       .  S
C1001      C1002   1.399       .  A
C1002      C1003   1.400       .  A
C1002      H1006   1.084       .  S
C1003      C1090   1.452       .  S
C1003      C1004   1.398       .  A
C1004      H1007   1.084       .  S
C1008      C1358   1.485       .  S
C1008      C1009   1.402       .  A
C1008      C1013   1.399       .  A
C1009      C1010   1.405       .  A
C1009      H1014   1.084       .  S
C1010      C1110   1.467       .  S
C1010      C1011   1.406       .  A
C1011      C1012   1.403       .  A
C1011      H1015   1.083       .  S
C1012      C1048   1.466       .  S
C1012      C1013   1.401       .  A
C1013      H1016   1.085       .  S
C1017      C1330   1.499       .  S
C1017      C1018   1.402       .  A
C1017      C1022   1.400       .  A
C1018      C1019   1.413       .  A
C1018      H1023   1.084       .  S
C1019      C1037   1.470       .  S
C1019      C1020   1.402       .  A
C1020      C1021   1.401       .  A
C1020      H1024   1.084       .  S
C1021      C1099   1.455       .  S
C1021      C1022   1.395       .  A
C1022      H1025   1.085       .  S
O1026     Zr1038   2.401       .  S
O1026      C1028   1.281       .  A
O1027      C1028   1.293       .  A
O1029     Zr1041   2.409       .  S
O1029      C1031   1.280       .  A
O1030      C1031   1.291       .  A
C1031      C1188   1.459       .  S
O1032     Zr1041   2.388       .  S
O1032      C1034   1.276       .  A
O1033      C1034   1.293       .  A
C1034      C1181   1.452       .  S
O1035     Zr1038   2.379       .  S
O1035      C1037   1.277       .  A
O1036      C1037   1.296       .  A
Zr1038     O1039   2.433       .  S
Zr1038     O1040   2.439       .  S
Zr1038     O1044   2.353       .  S
Zr1038     O1045   2.364       .  S
O1039      H1082   0.990       .  S
O1040      H1081   0.990       .  S
O1040      H1085   0.990       .  S
Zr1041     O1042   2.438       .  S
Zr1041     O1043   2.436       .  S
Zr1041     O1045   2.357       .  S
Zr1041     O1044   2.368       .  S
O1042      H1083   0.990       .  S
O1042      H1086   0.990       .  S
O1043      H1076   0.990       .  S
O1045      H1072   0.966       .  S
O1046     Zr1058   2.418       .  S
O1046      C1048   1.285       .  A
O1047     Zr1065   2.443       .  S
O1047      C1048   1.290       .  A
O1049     Zr1061   2.400       .  S
O1049      C1051   1.278       .  A
O1050     Zr1064   2.460       .  S
O1050      C1051   1.294       .  A
C1051      C1163   1.465       .  S
O1052     Zr1061   2.395       .  S
O1052      C1054   1.278       .  A
O1053     Zr1065   2.462       .  S
O1053      C1054   1.294       .  A
C1054      C1170   1.459       .  S
O1055     Zr1058   2.410       .  S
O1055      C1057   1.283       .  A
O1056     Zr1064   2.456       .  S
O1056      C1057   1.292       .  A
C1057      C1152   1.468       .  S
Zr1058     O1059   2.437       .  S
Zr1058     O1060   2.433       .  S
Zr1058     O1066   2.350       .  S
Zr1058     O1067   2.362       .  S
Zr1058     O1070   2.358       .  S
Zr1058     O1068   2.357       .  S
O1059      H1079   0.990       .  S
O1059      H1084   0.989       .  S
O1060      H1080   0.990       .  S
Zr1061     O1062   2.434       .  S
Zr1061     O1063   2.435       .  S
Zr1061     O1067   2.365       .  S
Zr1061     O1066   2.370       .  S
Zr1061     O1071   2.364       .  S
Zr1061     O1069   2.360       .  S
O1062      H1078   0.990       .  S
O1063      H1077   0.990       .  S
O1063      H1087   0.990       .  S
Zr1064     O1067   2.381       .  S
Zr1064     O1069   2.401       .  S
Zr1064     O1070   2.383       .  S
Zr1065     O1066   2.391       .  S
Zr1065     O1068   2.382       .  S
Zr1065     O1071   2.396       .  S
O1066      H1074   0.965       .  S
O1069      H1073   0.966       .  S
O1070      H1075   0.966       .  S
O1088     Zr1100   2.411   1_455  S
O1088      C1090   1.281       .  A
O1089     Zr1126   2.427       .  S
O1089      C1090   1.287       .  A
O1091     Zr2583   2.393       .  S
O1091      C1093   1.280       .  A
O1092     Zr1127   2.467       .  S
O1092      C1093   1.294       .  A
C1093      C1190   1.474       .  S
O1094     Zr1103   2.378   1_455  S
O1094      C1096   1.276       .  A
O1095     Zr1126   2.468       .  S
O1095      C1096   1.295       .  A
C1096      C1179   1.469       .  S
O1097     Zr2580   2.397       .  S
O1097      C1099   1.278       .  A
O1098     Zr1127   2.455       .  S
O1098      C1099   1.294       .  A
Zr1100     O2577   2.397       .  S
Zr1100     O1101   2.433       .  S
Zr1100     O2582   2.435       .  S
Zr1100     O1106   2.362   1_655  S
Zr1100     O2587   2.371       .  S
Zr1100     O2610   2.371       .  S
Zr1100     O1132   2.361   1_655  S
O1101      H1144   0.990       .  S
O1102     Zr2580   2.435       .  S
O1102      H2623   0.990       .  S
O1102      H2627   0.990       .  S
Zr1103     O2571   2.393       .  S
Zr1103     O1104   2.439       .  S
Zr1103     O2585   2.435       .  S
Zr1103     O2587   2.346       .  S
Zr1103     O1106   2.357   1_655  S
Zr1103     O1131   2.359   1_655  S
Zr1103     O2613   2.355       .  S
O1104      H2625   0.990       .  S
O1104      H1148   0.990   1_655  S
O1105     Zr2583   2.435       .  S
O1105      H2618   0.990       .  S
O1106     Zr1126   2.374       .  S
O1107     Zr2580   2.371       .  S
O1107     Zr2583   2.346       .  S
O1107     Zr1127   2.383       .  S
O1107      H1134   0.965       .  S
O1108     Zr1120   2.419       .  S
O1108      C1110   1.282       .  A
O1109     Zr1127   2.457       .  S
O1109      C1110   1.293       .  A
O1111     Zr2603   2.414   1_455  S
O1111      C1113   1.283       .  A
O1112     Zr1126   2.429       .  S
O1112      C1113   1.287       .  A
C1113      C1161   1.459       .  S
O1114     Zr1123   2.403       .  S
O1114      C1116   1.281       .  A
O1115     Zr1127   2.446       .  S
O1115      C1116   1.290       .  A
C1116      C1172   1.463       .  S
O1117     Zr2600   2.412   1_455  S
O1117      C1119   1.282       .  A
O1118     Zr1126   2.449       .  S
O1118      C1119   1.291       .  A
C1119      C1154   1.463       .  S
Zr1120     O2597   2.412       .  S
Zr1120     O1121   2.437       .  S
Zr1120     O1122   2.435       .  S
Zr1120     O1128   2.368       .  S
Zr1120     O2609   2.370       .  S
Zr1120     O2612   2.367       .  S
Zr1120     O1130   2.369       .  S
O1121      H1141   0.990       .  S
O1121      H1146   0.990       .  S
O1122      H1142   0.990       .  S
Zr1123     O2591   2.414       .  S
Zr1123     O1124   2.434       .  S
Zr1123     O1125   2.436       .  S
Zr1123     O2609   2.356       .  S
Zr1123     O1128   2.359       .  S
Zr1123     O1133   2.363       .  S
Zr1123     O2611   2.356       .  S
O1124      H2620   0.990       .  S
O1125      H1139   0.990       .  S
O1125      H1149   0.990       .  S
Zr1126     O1129   2.384       .  S
Zr1126     O1131   2.384       .  S
Zr1126     O1132   2.395       .  S
Zr1127     O1128   2.395       .  S
Zr1127     O1130   2.398       .  S
Zr1127     O1133   2.387       .  S
O1128      H1136   0.966       .  S
O1129     Zr2600   2.370   1_455  S
O1129     Zr2603   2.356   1_455  S
O1130     Zr2580   2.371       .  S
O1131     Zr2603   2.356   1_455  S
O1131      H1135   0.966       .  S
O1132     Zr2600   2.367   1_455  S
O1132      H1137   0.966       .  S
O1133     Zr2583   2.355       .  S
H1138      O2585   0.990       .  S
H1140      O2604   0.990   1_455  S
H1143      O2582   0.990   1_455  S
H1145      O2584   0.990       .  S
H1147      O2582   0.990       .  S
C1150      C1344   1.504       .  S
C1150      C1151   1.406       .  A
C1150      C1155   1.406       .  A
C1151      C1152   1.404       .  A
C1151      H1156   1.084       .  S
C1152      C1153   1.399       .  A
C1153      C1154   1.403       .  A
C1153      H1157   1.083       .  S
C1154      C1155   1.405       .  A
C1155      H1158   1.083       .  S
C1159      C1299   1.480       .  S
C1159      C1160   1.395       .  A
C1159      C1164   1.403       .  A
C1160      C1161   1.401       .  A
C1160      H1165   1.085       .  S
C1161      C1162   1.402       .  A
C1162      C1163   1.402       .  A
C1162      H1166   1.083       .  S
C1163      C1164   1.403       .  A
C1164      H1167   1.085       .  S
C1168      C1285   1.479       .  S
C1168      C1169   1.397       .  A
C1168      C1173   1.396       .  A
C1169      C1170   1.397       .  A
C1169      H1174   1.085       .  S
C1170      C1171   1.403       .  A
C1171      C1172   1.404       .  A
C1171      H1175   1.083       .  S
C1172      C1173   1.406       .  A
C1173      H1176   1.085       .  S
C1177      C1274   1.505       .  S
C1177      C1178   1.407       .  A
C1177      C1182   1.399       .  A
C1178      C1179   1.414       .  A
C1178      H1183   1.083       .  S
C1179      C1180   1.399       .  A
C1180      C1181   1.397       .  A
C1180      H1184   1.084       .  S
C1181      C1182   1.395       .  A
C1182      H1185   1.084       .  S
C1186      C1260   1.495       .  S
C1186      C1187   1.400       .  A
C1186      C1191   1.404       .  A
C1187      C1188   1.401       .  A
C1187      H1192   1.084       .  S
C1188      C1189   1.405       .  A
C1189      C1190   1.402       .  A
C1189      H1193   1.084       .  S
C1190      C1191   1.409       .  A
C1191      H1194   1.085       .  S
O1195     Zr1207   2.451       .  S
O1195      C1197   1.288       .  A
O1196     Zr1973   2.424   1_465  S
O1196      C1197   1.286       .  A
C1197      C1400   1.485       .  S
O1198     Zr1210   2.492       .  S
O1198      C1200   1.296       .  A
O1199     Zr2714   2.367   1_455  S
O1199      C1200   1.273       .  A
C1200      C1302   1.512       .  S
O1201     Zr1210   2.506       .  S
O1201      C1203   1.297       .  A
O1202     Zr2713   2.344   1_455  S
O1202      C1203   1.267       .  A
C1203      C1414   1.518       .  S
O1204     Zr1207   2.438       .  S
O1204      C1206   1.285       .  A
O1205     Zr1974   2.423   1_465  S
O1205      C1206   1.287       .  A
C1206      C1271   1.482       .  S
Zr1207     O1208   2.434       .  S
Zr1207     O1209   2.434       .  S
Zr1207     O2717   2.382   1_455  S
Zr1207     O2719   2.374   1_455  S
O1209      H1250   0.990       .  S
O1209      H1254   0.990       .  S
Zr1210     O1211   2.435       .  S
Zr1210     O1212   2.435       .  S
Zr1210     O1214   2.385       .  S
Zr1210     O1213   2.380       .  S
Zr1210     O2718   2.382   1_455  S
Zr1210     O2720   2.387   1_455  S
O1211      H1252   0.990       .  S
O1211      H1255   0.990       .  S
O1212      H1245   0.990       .  S
O1213     Zr2713   2.364   1_455  S
O1214     Zr2714   2.375   1_455  S
O1214      H1241   0.966       .  S
O1215     Zr1227   2.459       .  S
O1215      C1217   1.290       .  A
O1216      C1217   1.284       .  A
C1217      C1257   1.494       .  S
O1218     Zr1230   2.448       .  S
O1218      C1220   1.286       .  A
O1219     Zr1233   2.417       .  S
O1219      C1220   1.287       .  A
C1220      C1386   1.482       .  S
O1221     Zr1230   2.464       .  S
O1221      C1223   1.290       .  A
O1222     Zr1234   2.397       .  S
O1222      C1223   1.281       .  A
C1223      C1288   1.507       .  S
O1224     Zr1227   2.462       .  S
O1224      C1226   1.290       .  A
O1225      C1226   1.280       .  A
C1226      C1369   1.476       .  S
Zr1227     O1228   2.433       .  S
Zr1227     O1229   2.433       .  S
Zr1227     O1239   2.374       .  S
Zr1227     O1237   2.384       .  S
O1228      H1248   0.990       .  S
O1228      H1253   0.990       .  S
O1229      H1249   0.990       .  S
Zr1230     O1231   2.434       .  S
Zr1230     O1232   2.435       .  S
Zr1230     O1236   2.387       .  S
Zr1230     O1235   2.376       .  S
Zr1230     O1240   2.374       .  S
Zr1230     O1238   2.384       .  S
O1231      H1247   0.990       .  S
O1232      H1246   0.990       .  S
O1232      H1256   0.990       .  S
Zr1233     O1936   2.424       .  S
Zr1233     O2682   2.344       .  S
Zr1233     O2693   2.364       .  S
Zr1233     O1236   2.362       .  S
Zr1233     O1238   2.375       .  S
Zr1234     O2679   2.367       .  S
Zr1234     O1945   2.423       .  S
Zr1234     O2694   2.375       .  S
Zr1234     O1235   2.367       .  S
Zr1234     O1240   2.371       .  S
O1235      H1243   0.966       .  S
O1237     Zr2687   2.382       .  S
O1238     Zr2690   2.382       .  S
O1238      H1242   0.966       .  S
O1239     Zr2687   2.374       .  S
O1239      H1244   0.966       .  S
O1240     Zr2690   2.387       .  S
C1257      C1258   1.414       .  A
C1257      C1262   1.417       .  A
C1258      C1259   1.404       .  A
C1258      C1263   1.449       .  S
C1259      C1260   1.412       .  A
C1259      C1266   1.450       .  S
C1260      C1261   1.414       .  A
C1261      C1262   1.417       .  A
C1261      C1264   1.450       .  S
C1262      C1265   1.449       .  S
C1263      N2750   1.155       .  T
C1264      N1269   1.157       .  T
C1265      N1267   1.157       .  T
C1266      N1268   1.156       .  T
N1270      C2743   1.155   1_455  T
C1271      C1272   1.410       .  A
C1271      C1276   1.402       .  A
C1272      C1273   1.416       .  A
C1272      C1277   1.450       .  S
C1273      C1274   1.422       .  A
C1273      C1280   1.450       .  S
C1274      C1275   1.424       .  A
C1275      C1276   1.402       .  A
C1275      C1278   1.452       .  S
C1277      N1284   1.157       .  T
C1278      N1283   1.158   1_565  T
C1279      N1281   1.156       .  T
C1280      N1282   1.157       .  T
C1285      C1286   1.404       .  A
C1285      C1290   1.407       .  A
C1286      C1287   1.399       .  A
C1286      C1291   1.458       .  S
C1287      C1288   1.427       .  A
C1287      C1294   1.450       .  S
C1288      C1289   1.427       .  A
C1289      C1290   1.418       .  A
C1289      C1292   1.450       .  S
C1290      C1293   1.450       .  S
C1291      N1298   1.157       .  T
C1292      N1297   1.157       .  T
C1293      N1295   1.157       .  T
C1294      N1296   1.156       .  T
C1299      C1300   1.409       .  A
C1299      C1304   1.402       .  A
C1300      C1301   1.420       .  A
C1300      C1305   1.450       .  S
C1301      C1302   1.423       .  A
C1301      C1308   1.449       .  S
C1302      C1303   1.436       .  A
C1303      C1304   1.399       .  A
C1303      C1306   1.454       .  S
C1304      C1307   1.459       .  S
C1305      N1312   1.157       .  T
C1306      N1311   1.157       .  T
C1307      N1309   1.157       .  T
C1308      N1310   1.157       .  T
C1313      C1314   1.422       .  A
C1313      C1318   1.416       .  A
C1314      C1315   1.417       .  A
C1314      C1319   1.450       .  S
C1315      C1316   1.410       .  A
C1315      C1322   1.450       .  S
C1316      C1317   1.406       .  A
C1317      C1318   1.403       .  A
C1317      C1320   1.446       .  S
C1318      C1321   1.450       .  S
C1319      N1326   1.157       .  T
C1320      N1325   1.154       .  T
C1321      N1323   1.156       .  T
C1322      N1324   1.157       .  T
C1327      C1328   1.404       .  A
C1327      C1332   1.416       .  A
C1328      C1329   1.399       .  A
C1328      C1333   1.440       .  S
C1329      C1330   1.416       .  A
C1329      C1336   1.454       .  S
C1330      C1331   1.420       .  A
C1331      C1332   1.419       .  A
C1331      C1334   1.450       .  S
C1332      C1335   1.450       .  S
C1333      N1340   1.153       .  T
C1334      N1339   1.157       .  T
C1335      N1337   1.157       .  T
C1336      N1338   1.158       .  T
C1341      C1342   1.401       .  A
C1341      C1346   1.411       .  A
C1342      C1343   1.401       .  A
C1342      C1347   1.450       .  S
C1343      C1344   1.418       .  A
C1343      C1350   1.446       .  S
C1344      C1345   1.421       .  A
C1345      C1346   1.419       .  A
C1345      C1348   1.449       .  S
C1346      C1349   1.449       .  S
C1347      N1354   1.157       .  T
C1348      N1353   1.157       .  T
C1349      N1351   1.157       .  T
C1350      N1352   1.155       .  T
C1355      C1356   1.426       .  A
C1355      C1360   1.437       .  A
C1356      C1357   1.420       .  A
C1356      C1361   1.449       .  S
C1357      C1358   1.407       .  A
C1357      C1364   1.450       .  S
C1358      C1359   1.404       .  A
C1359      C1360   1.403       .  A
C1359      C1362   1.457       .  S
C1360      C1363   1.455       .  S
C1361      N1368   1.157       .  T
C1362      N1367   1.157       .  T
C1363      N1365   1.158       .  T
C1364      N1366   1.157       .  T
C1369      C1370   1.409       .  A
C1369      C1374   1.406       .  A
C1370      C1371   1.415       .  A
C1370      C1375   1.450       .  S
C1371      C1372   1.419       .  A
C1371      C1378   1.449       .  S
C1372      C1373   1.417       .  A
C1373      C1374   1.401       .  A
C1373      C1376   1.453       .  S
C1375      N1382   1.157       .  T
C1376      N1381   1.157       .  T
C1377      N1379   1.154       .  T
C1378      N1380   1.157       .  T
C1383      C1384   1.425       .  A
C1383      C1388   1.430       .  A
C1384      C1385   1.420       .  A
C1384      C1389   1.449       .  S
C1385      C1386   1.407       .  A
C1385      C1392   1.449       .  S
C1386      C1387   1.398       .  A
C1387      C1388   1.400       .  A
C1387      C1390   1.452       .  S
C1388      C1391   1.453       .  S
C1389      N1396   1.157       .  T
C1390      N2875   1.157       .  T
C1391      N1393   1.158       .  T
C1392      N1394   1.157       .  T
N1395      C2870   1.157       .  T
C1397      C1398   1.416       .  A
C1397      C1402   1.420       .  A
C1398      C1399   1.405       .  A
C1398      C1403   1.450       .  S
C1399      C1400   1.405       .  A
C1400      C1401   1.410       .  A
C1401      C1402   1.417       .  A
C1401      C1404   1.449       .  S
C1402      C1405   1.450       .  S
C1403      N1410   1.157   1_565  T
C1404      N1409   1.157       .  T
C1405      N1407   1.157       .  T
C1406      N1408   1.156       .  T
C1411      C1412   1.405       .  A
C1411      C1416   1.412       .  A
C1412      C1413   1.399       .  A
C1412      C1417   1.460       .  S
C1413      C1414   1.439       .  A
C1413      C1420   1.458       .  S
C1414      C1415   1.424       .  A
C1415      C1416   1.424       .  A
C1415      C1418   1.449       .  S
C1416      C1419   1.449       .  S
C1417      N1424   1.157       .  T
C1418      N1423   1.158       .  T
C1419      N1421   1.157       .  T
C1420      N2902   1.158   1_455  T
N1422      C2900   1.158       .  T
C1425      C1426   1.413       .  A
C1425      C1430   1.412       .  A
C1426      C1427   1.416       .  A
C1426      C1431   1.451       .  S
C1427      C1428   1.419       .  A
C1427      C1434   1.450       .  S
C1428      C1429   1.417       .  A
C1429      C1430   1.408       .  A
C1429      C1432   1.449       .  S
C1430      C1433   1.451       .  S
C1431      N1438   1.157       .  T
C1432      N1437   1.156       .  T
C1433      N1435   1.156       .  T
C1434      N1436   1.157       .  T
C1439      C1440   1.410       .  A
C1439      C1444   1.406       .  A
C1440      C1441   1.415       .  A
C1440      C1445   1.450       .  S
C1441      C1442   1.420       .  A
C1441      C1448   1.451       .  S
C1442      C1443   1.419       .  A
C1443      C1444   1.409       .  A
C1443      C1446   1.448       .  S
C1444      C1447   1.450       .  S
C1445      N1452   1.157       .  T
C1446      N1451   1.156       .  T
C1447      N1449   1.157       .  T
C1448      N1450   1.157       .  T
C1453      C1454   1.411       .  A
C1453      C1458   1.402       .  A
C1454      C1455   1.419       .  A
C1454      C1459   1.452       .  S
C1455      C1456   1.428       .  A
C1455      C1462   1.447       .  S
C1456      C1457   1.427       .  A
C1457      C1458   1.406       .  A
C1457      C1460   1.452       .  S
C1458      C1461   1.449       .  S
C1459      N1466   1.157       .  T
C1460      N1465   1.157       .  T
C1461      N1463   1.156       .  T
C1462      N1464   1.158       .  T
C1467      C1468   1.425       .  A
C1467      C1472   1.431       .  A
C1468      C1469   1.419       .  A
C1468      C1473   1.450       .  S
C1469      C1470   1.409       .  A
C1469      C1476   1.451       .  S
C1470      C1471   1.407       .  A
C1471      C1472   1.410       .  A
C1471      C1474   1.454       .  S
C1472      C1475   1.454       .  S
C1473      N1480   1.157       .  T
C1474      N1479   1.157       .  T
C1475      N1477   1.158       .  T
C1476      N1478   1.157       .  T
O1481     Zr1493   2.423       .  S
O1481      C1483   1.285       .  A
O1482      C1483   1.298       .  A
C1483      C1545   1.495       .  S
O1484     Zr1496   2.404       .  S
O1484      C1486   1.279       .  A
O1485     Zr1520   2.467       .  S
O1485      C1486   1.294       .  A
C1486      C1670   1.468       .  S
O1487     Zr1496   2.389       .  S
O1487      C1489   1.278       .  A
O1488      C1489   1.298       .  A
C1489      C1661   1.473       .  S
O1490     Zr1493   2.412       .  S
O1490      C1492   1.284       .  A
O1491     Zr1520   2.481       .  S
O1491      C1492   1.297       .  A
C1492      C1625   1.486       .  S
Zr1493     O1494   2.433       .  S
Zr1493     O1495   2.436       .  S
Zr1493     O1499   2.353       .  S
Zr1493     O1500   2.367       .  S
Zr1493     O1523   2.368       .  S
O1494      H1537   0.990       .  S
O1495      H1536   0.989       .  S
O1495      H1540   0.990       .  S
Zr1496     O1497   2.438       .  S
Zr1496     O1498   2.437       .  S
Zr1496     O1500   2.359       .  S
Zr1496     O1499   2.359       .  S
Zr1496     O1526   2.360       .  S
O1497      H1538   0.990       .  S
O1497      H1541   0.990       .  S
O1498      H1531   0.990       .  S
O1500     Zr1520   2.392       .  S
O1500      H1527   0.966       .  S
O1501     Zr1513   2.420       .  S
O1501      C1503   1.285       .  A
O1502      C1503   1.296       .  A
C1503      C1616   1.485       .  S
O1504     Zr1516   2.403       .  S
O1504      C1506   1.279       .  A
O1505     Zr1519   2.480       .  S
O1505      C1506   1.298       .  A
C1506      C1643   1.470       .  S
O1507     Zr1516   2.420       .  S
O1507      C1509   1.282       .  A
O1508      C1509   1.295       .  A
C1509      C1652   1.475       .  S
O1510     Zr1513   2.424       .  S
O1510      C1512   1.286       .  A
O1511     Zr1519   2.477       .  S
O1511      C1512   1.297       .  A
C1512      C1636   1.489       .  S
Zr1513     O1514   2.438       .  S
Zr1513     O1515   2.436       .  S
Zr1513     O1521   2.365       .  S
Zr1513     O1522   2.351       .  S
Zr1513     O1525   2.374       .  S
O1514      H1534   0.990       .  S
O1514      H1539   0.990       .  S
O1515      H1535   0.990       .  S
Zr1516     O1517   2.434       .  S
Zr1516     O1518   2.435       .  S
Zr1516     O1522   2.362       .  S
Zr1516     O1521   2.364       .  S
Zr1516     O1524   2.373       .  S
O1517      H1533   0.990       .  S
O1518      H1532   0.990       .  S
O1518      H1542   0.990       .  S
Zr1519     O1522   2.388       .  S
Zr1519     O1524   2.410       .  S
Zr1519     O1525   2.405       .  S
Zr1520     O1523   2.403       .  S
Zr1520     O1526   2.396       .  S
O1521      H1529   0.965       .  S
O1524      H1528   0.966       .  S
O1525      H1530   0.966       .  S
C1543      C2210   1.492       .  S
C1543      C1544   1.403       .  A
C1543      C1548   1.393       .  A
C1544      C1545   1.414       .  A
C1544      H1549   1.084       .  S
C1545      C1546   1.417       .  A
C1546      C1547   1.419       .  A
C1546      H1550   1.082       .  S
C1547      C1560   1.486       .  S
C1547      C1548   1.402       .  A
C1548      H1551   1.085       .  S
O1552     Zr1564   2.476       .  S
O1552      C1554   1.295       .  A
O1553     Zr2330   2.412   1_545  S
O1553      C1554   1.283       .  A
C1554      C1663   1.480       .  S
O1555     Zr1567   2.459       .  S
O1555      C1557   1.293       .  A
O1556     Zr2331   2.420   1_545  S
O1556      C1557   1.283       .  A
C1557      C1634   1.484       .  S
O1558     Zr1567   2.457       .  S
O1558      C1560   1.293       .  A
O1559     Zr2330   2.430   1_545  S
O1559      C1560   1.284       .  A
O1561     Zr1564   2.475       .  S
O1561      C1563   1.294       .  A
O1562     Zr2331   2.415   1_545  S
O1562      C1563   1.284       .  A
C1563      C1645   1.479       .  S
Zr1564     O1565   2.433       .  S
Zr1564     O1566   2.435       .  S
Zr1564     O1570   2.381       .  S
Zr1564     O1571   2.381       .  S
Zr1564     O1594   2.381   1_545  S
Zr1564     O2336   2.376   1_545  S
O1565      H1608   0.990       .  S
O1566      H1607   0.990       .  S
O1566      H1611   0.990       .  S
Zr1567     O1568   2.435       .  S
Zr1567     O1569   2.435       .  S
Zr1567     O1571   2.367       .  S
Zr1567     O1570   2.372       .  S
Zr1567     O2335   2.370   1_545  S
Zr1567     O2337   2.372   1_545  S
O1568      H1609   0.990       .  S
O1568      H1612   0.990       .  S
O1569      H1602   0.990       .  S
O1570     Zr2330   2.381   1_545  S
O1571     Zr2331   2.386   1_545  S
O1571      H1598   0.966       .  S
O1572     Zr1584   2.487       .  S
O1572      C1574   1.296       .  A
O1573     Zr1591   2.400       .  S
O1573      C1574   1.281       .  A
C1574      C1654   1.478       .  S
O1575     Zr1587   2.449       .  S
O1575      C1577   1.291       .  A
O1576     Zr1590   2.431       .  S
O1576      C1577   1.286       .  A
C1577      C1627   1.486       .  S
O1578     Zr1587   2.437       .  S
O1578      C1580   1.289       .  A
O1579     Zr1591   2.432       .  S
O1579      C1580   1.285       .  A
C1580      C1618   1.484       .  S
O1581     Zr1584   2.472       .  S
O1581      C1583   1.294       .  A
O1582     Zr1590   2.391       .  S
O1582      C1583   1.280       .  A
C1583      C1672   1.470       .  S
Zr1584     O1585   2.435       .  S
Zr1584     O1586   2.434       .  S
Zr1584     O1592   2.375       .  S
Zr1584     O1593   2.383       .  S
Zr1584     O1596   2.382       .  S
Zr1584     O2334   2.379       .  S
O1585      H1605   0.990       .  S
O1585      H1610   0.990       .  S
O1586      H1606   0.990       .  S
Zr1587     O1588   2.434       .  S
Zr1587     O1589   2.436       .  S
Zr1587     O1593   2.365       .  S
Zr1587     O1592   2.370       .  S
Zr1587     O1597   2.374       .  S
Zr1587     O1595   2.369       .  S
O1588      H1604   0.990       .  S
O1589      H1603   0.990       .  S
O1589      H1613   0.990       .  S
Zr1590     O2293   2.412       .  S
Zr1590     O2299   2.430       .  S
Zr1590     O2310   2.381       .  S
Zr1590     O1593   2.383       .  S
Zr1590     O1595   2.377       .  S
Zr1590     O1596   2.397       .  S
Zr1591     O2296   2.420       .  S
Zr1591     O2302   2.415       .  S
Zr1591     O2311   2.386       .  S
Zr1591     O1592   2.387       .  S
Zr1591     O2334   2.391       .  S
Zr1591     O1597   2.381       .  S
O1592      H1600   0.966       .  S
O1594     Zr2324   2.379       .  S
O1594     Zr2331   2.391       .  S
O1595     Zr2307   2.370       .  S
O1595      H1599   0.966       .  S
O1596     Zr2304   2.376       .  S
O1596      H1601   0.966       .  S
O1597     Zr2307   2.372       .  S
C1614      C2196   1.541       .  S
C1614      C1615   1.419       .  A
C1614      C1619   1.410       .  A
C1615      C1616   1.416       .  A
C1615      H1620   1.071       .  S
C1616      C1617   1.406       .  A
C1617      C1618   1.404       .  A
C1617      H1621   1.084       .  S
C1618      C1619   1.402       .  A
C1619      H1622   1.072       .  S
C1623      C2182   1.503       .  S
C1623      C1624   1.405       .  A
C1623      C1628   1.400       .  A
C1624      C1625   1.412       .  A
C1624      H1629   1.084       .  S
C1625      C1626   1.412       .  A
C1626      C1627   1.414       .  A
C1626      H1630   1.083       .  S
C1627      C1628   1.405       .  A
C1628      H1631   1.084       .  S
C1632      C2165   1.494       .  S
C1632      C1633   1.395       .  A
C1632      C1637   1.403       .  A
C1633      C1634   1.401       .  A
C1633      H1638   1.085       .  S
C1634      C1635   1.418       .  A
C1635      C1636   1.415       .  A
C1635      H1639   1.083       .  S
C1636      C1637   1.411       .  A
C1637      H1640   1.085       .  S
C1641      C2151   1.489       .  S
C1641      C1642   1.400       .  A
C1641      C1646   1.406       .  A
C1642      C1643   1.395       .  A
C1642      H1647   1.086       .  S
C1643      C1644   1.403       .  A
C1644      C1645   1.415       .  A
C1644      H1648   1.083       .  S
C1645      C1646   1.410       .  A
C1646      H1649   1.083       .  S
C1650      C2137   1.500       .  S
C1650      C1651   1.408       .  A
C1650      C1655   1.410       .  A
C1651      C1652   1.404       .  A
C1651      H1656   1.084       .  S
C1652      C1653   1.405       .  A
C1653      C1654   1.409       .  A
C1653      H1657   1.084       .  S
C1654      C1655   1.401       .  A
C1655      H1658   1.084       .  S
C1659      C2123   1.511       .  S
C1659      C1660   1.397       .  A
C1659      C1664   1.413       .  A
C1660      C1661   1.397       .  A
C1660      H1665   1.082       .  S
C1661      C1662   1.401       .  A
C1662      C1663   1.414       .  A
C1662      H1666   1.082       .  S
C1663      C1664   1.411       .  A
C1664      H1667   1.081       .  S
C1668      C2112   1.494       .  S
C1668      C1669   1.408       .  A
C1668      C1673   1.405       .  A
C1669      C1670   1.405       .  A
C1669      H1674   1.083       .  S
C1670      C1671   1.403       .  A
C1671      C1672   1.407       .  A
C1671      H1675   1.084       .  S
C1672      C1673   1.396       .  A
C1673      H1676   1.084       .  S
O1677     Zr1689   2.431       .  S
O1677      C1679   1.284       .  A
O1678     Zr1715   2.444       .  S
O1678      C1679   1.291       .  A
C1679      C2179   1.486       .  S
O1680     Zr1692   2.494   1_554  S
O1680      C1682   1.297       .  A
O1681     Zr1716   2.374       .  S
O1681      C1682   1.276       .  A
C1682      C2095   1.515       .  S
O1683     Zr1692   2.480       .  S
O1683      C1685   1.296       .  A
O1684     Zr1715   2.409       .  S
O1684      C1685   1.283       .  A
C1685      C2207   1.516       .  S
O1686     Zr1689   2.443   1_554  S
O1686      C1688   1.287       .  A
O1687     Zr1716   2.439       .  S
O1687      C1688   1.291       .  A
C1688      C2067   1.494       .  S
Zr1689     O1690   2.434       .  S
Zr1689     O1691   2.434       .  S
Zr1689     O1695   2.377       .  S
Zr1689     O1696   2.370   1_556  S
Zr1689     O1719   2.375   1_556  S
Zr1689     O1721   2.380       .  S
O1690      H1733   0.990       .  S
O1691      H1732   0.990       .  S
O1691      H1736   0.990       .  S
Zr1692     O1693   2.434       .  S
Zr1692     O1694   2.434       .  S
Zr1692     O1696   2.375   1_556  S
Zr1692     O1695   2.382       .  S
Zr1692     O1720   2.381       .  S
Zr1692     O1722   2.378   1_556  S
O1693      H1734   0.990   1_556  S
O1693      H1737   0.990       .  S
O1694      H1727   0.990       .  S
O1695     Zr1715   2.377       .  S
O1696     Zr1716   2.375       .  S
O1696      H1723   0.966       .  S
O1697     Zr1709   2.457   1_554  S
O1697      C1699   1.289       .  A
O1698     Zr1716   2.410       .  S
O1698      C1699   1.285       .  A
C1699      C2056   1.483       .  S
O1700     Zr1712   2.453       .  S
O1700      C1702   1.290       .  A
O1701     Zr1715   2.423       .  S
O1701      C1702   1.287       .  A
C1702      C2168   1.497       .  S
O1703     Zr1712   2.449   1_554  S
O1703      C1705   1.287       .  A
O1704     Zr1716   2.425       .  S
O1704      C1705   1.288       .  A
C1705      C2081   1.483       .  S
O1706     Zr1709   2.430       .  S
O1706      C1708   1.285       .  A
O1707     Zr1715   2.436       .  S
O1707      C1708   1.289       .  A
C1708      C2193   1.483       .  S
Zr1709     O1710   2.436       .  S
Zr1709     O1711   2.433       .  S
Zr1709     O1717   2.365   1_556  S
Zr1709     O1718   2.375       .  S
Zr1709     O1721   2.385       .  S
Zr1709     O1719   2.374   1_556  S
O1710      H1730   0.990   1_556  S
O1710      H1735   0.990   1_556  S
O1711      H1731   0.990   1_556  S
Zr1712     O1713   2.434       .  S
Zr1712     O1714   2.434       .  S
Zr1712     O1718   2.372       .  S
Zr1712     O1717   2.377   1_556  S
Zr1712     O1722   2.377   1_556  S
Zr1712     O1720   2.373       .  S
O1713      H1729   0.990       .  S
O1714      H1728   0.990   1_556  S
O1714      H1738   0.990       .  S
Zr1715     O1718   2.377       .  S
Zr1715     O1720   2.388       .  S
Zr1715     O1721   2.381       .  S
Zr1716     O1717   2.373       .  S
Zr1716     O1719   2.365       .  S
Zr1716     O1722   2.378       .  S
O1717      H1725   0.966       .  S
O1720      H1724   0.966       .  S
O1721      H1726   0.966       .  S
C1739      C2053   1.501       .  S
C1739      C1740   1.408       .  A
C1739      C1744   1.400       .  A
C1740      C1741   1.410       .  A
C1740      H1745   1.084       .  S
C1741      C1768   1.471       .  S
C1741      C1742   1.399       .  A
C1742      C1743   1.400       .  A
C1742      H1746   1.084       .  S
C1743      C1830   1.452       .  S
C1743      C1744   1.398       .  A
C1744      H1747   1.084       .  S
C1748      C2098   1.485       .  S
C1748      C1749   1.402       .  A
C1748      C1753   1.399       .  A
C1749      C1750   1.405       .  A
C1749      H1754   1.084       .  S
C1750      C1850   1.467       .  S
C1750      C1751   1.406       .  A
C1751      C1752   1.403       .  A
C1751      H1755   1.083       .  S
C1752      C1788   1.466       .  S
C1752      C1753   1.401       .  A
C1753      H1756   1.085       .  S
C1757      C2070   1.499       .  S
C1757      C1758   1.402       .  A
C1757      C1762   1.400       .  A
C1758      C1759   1.413       .  A
C1758      H1763   1.084       .  S
C1759      C1777   1.470       .  S
C1759      C1760   1.402       .  A
C1760      C1761   1.401       .  A
C1760      H1764   1.084       .  S
C1761      C1839   1.455       .  S
C1761      C1762   1.395       .  A
C1762      H1765   1.085       .  S
O1766     Zr1778   2.401       .  S
O1766      C1768   1.281       .  A
O1767     Zr2544   2.459       .  S
O1767      C1768   1.293       .  A
O1769     Zr1781   2.409       .  S
O1769      C1771   1.280       .  A
O1770     Zr2545   2.447       .  S
O1770      C1771   1.291       .  A
C1771      C1928   1.459       .  S
O1772     Zr1781   2.388       .  S
O1772      C1774   1.276       .  A
O1773     Zr2544   2.452       .  S
O1773      C1774   1.293       .  A
C1774      C1921   1.452       .  S
O1775     Zr1778   2.379       .  S
O1775      C1777   1.277       .  A
O1776     Zr2545   2.472       .  S
O1776      C1777   1.296       .  A
Zr1778     O1779   2.433       .  S
Zr1778     O1780   2.439       .  S
Zr1778     O1784   2.353       .  S
Zr1778     O1785   2.364       .  S
Zr1778     O2548   2.356       .  S
Zr1778     O2550   2.346       .  S
O1779      H1822   0.990       .  S
O1780      H1821   0.990       .  S
O1780      H1825   0.990       .  S
Zr1781     O1782   2.438       .  S
Zr1781     O1783   2.436       .  S
Zr1781     O1785   2.357       .  S
Zr1781     O1784   2.368       .  S
Zr1781     O2549   2.373       .  S
Zr1781     O2551   2.366       .  S
O1782      H1823   0.990       .  S
O1782      H1826   0.990       .  S
O1783      H1816   0.990       .  S
O1784     Zr2544   2.381       .  S
O1785     Zr2545   2.388       .  S
O1785      H1812   0.966       .  S
O1786     Zr1798   2.418       .  S
O1786      C1788   1.285       .  A
O1787     Zr1805   2.443       .  S
O1787      C1788   1.290       .  A
O1789     Zr1801   2.400       .  S
O1789      C1791   1.278       .  A
O1790     Zr1804   2.460       .  S
O1790      C1791   1.294       .  A
C1791      C1903   1.465       .  S
O1792     Zr1801   2.395       .  S
O1792      C1794   1.278       .  A
O1793     Zr1805   2.462       .  S
O1793      C1794   1.294       .  A
C1794      C1910   1.459       .  S
O1795     Zr1798   2.410       .  S
O1795      C1797   1.283       .  A
O1796     Zr1804   2.456       .  S
O1796      C1797   1.292       .  A
C1797      C1892   1.468       .  S
Zr1798     O1799   2.437       .  S
Zr1798     O1800   2.433       .  S
Zr1798     O1806   2.350       .  S
Zr1798     O1807   2.362       .  S
Zr1798     O1810   2.358       .  S
Zr1798     O1808   2.357       .  S
O1799      H1819   0.990       .  S
O1799      H1824   0.989       .  S
O1800      H1820   0.990       .  S
Zr1801     O1802   2.434       .  S
Zr1801     O1803   2.435       .  S
Zr1801     O1807   2.365       .  S
Zr1801     O1806   2.370       .  S
Zr1801     O1811   2.364       .  S
Zr1801     O1809   2.360       .  S
O1802      H1818   0.990       .  S
O1803      H1817   0.990       .  S
O1803      H1827   0.990       .  S
Zr1804     O2507   2.459   1_545  S
Zr1804     O2513   2.452   1_545  S
Zr1804     O2524   2.381   1_545  S
Zr1804     O1807   2.381       .  S
Zr1804     O1809   2.401       .  S
Zr1804     O1810   2.383       .  S
Zr1805     O2510   2.447   1_545  S
Zr1805     O2516   2.472   1_545  S
Zr1805     O2525   2.388   1_545  S
Zr1805     O1806   2.391       .  S
Zr1805     O1808   2.382       .  S
Zr1805     O1811   2.396       .  S
O1806      H1814   0.965       .  S
O1808     Zr2518   2.356   1_545  S
O1809     Zr2521   2.373   1_545  S
O1809      H1813   0.966       .  S
O1810     Zr2518   2.346   1_545  S
O1810      H1815   0.966       .  S
O1811     Zr2521   2.366   1_545  S
O1828     Zr1840   2.411       .  S
O1828      C1830   1.281       .  A
O1829     Zr1866   2.427       .  S
O1829      C1830   1.287       .  A
O1831      C1833   1.280       .  A
O1832     Zr1867   2.467       .  S
O1832      C1833   1.294       .  A
C1833      C1930   1.474       .  S
O1834     Zr1843   2.378       .  S
O1834      C1836   1.276       .  A
O1835     Zr1866   2.468       .  S
O1835      C1836   1.295       .  A
C1836      C1919   1.469       .  S
O1837      C1839   1.278       .  A
O1838     Zr1867   2.455       .  S
O1838      C1839   1.294       .  A
Zr1840     O1841   2.433       .  S
Zr1840     O1846   2.362       .  S
Zr1840     O1872   2.361       .  S
O1841      H1884   0.990       .  S
Zr1843     O1844   2.439       .  S
Zr1843     O1846   2.357       .  S
Zr1843     O1871   2.359       .  S
O1844      H1888   0.990       .  S
O1846     Zr1866   2.374       .  S
O1847     Zr1867   2.383       .  S
O1847      H1874   0.965       .  S
O1848     Zr1860   2.419       .  S
O1848      C1850   1.282       .  A
O1849     Zr1867   2.457       .  S
O1849      C1850   1.293       .  A
O1851      C1853   1.283       .  A
O1852     Zr1866   2.429       .  S
O1852      C1853   1.287       .  A
C1853      C1901   1.459       .  S
O1854     Zr1863   2.403       .  S
O1854      C1856   1.281       .  A
O1855     Zr1867   2.446       .  S
O1855      C1856   1.290       .  A
C1856      C1912   1.463       .  S
O1857      C1859   1.282       .  A
O1858     Zr1866   2.449       .  S
O1858      C1859   1.291       .  A
C1859      C1894   1.463       .  S
Zr1860     O1861   2.437       .  S
Zr1860     O1862   2.435       .  S
Zr1860     O1868   2.368       .  S
Zr1860     O1870   2.369       .  S
O1861      H1881   0.990       .  S
O1861      H1886   0.990       .  S
O1862      H1882   0.990       .  S
Zr1863     O1864   2.434       .  S
Zr1863     O1865   2.436       .  S
Zr1863     O1868   2.359       .  S
Zr1863     O1873   2.363       .  S
O1865      H1879   0.990       .  S
O1865      H1889   0.990       .  S
Zr1866     O1869   2.384       .  S
Zr1866     O1871   2.384       .  S
Zr1866     O1872   2.395       .  S
Zr1867     O1868   2.395       .  S
Zr1867     O1870   2.398       .  S
Zr1867     O1873   2.387       .  S
O1868      H1876   0.966       .  S
O1871      H1875   0.966       .  S
O1872      H1877   0.966       .  S
C1890      C2084   1.504       .  S
C1890      C1891   1.406       .  A
C1890      C1895   1.406       .  A
C1891      C1892   1.404       .  A
C1891      H1896   1.084       .  S
C1892      C1893   1.399       .  A
C1893      C1894   1.403       .  A
C1893      H1897   1.083       .  S
C1894      C1895   1.405       .  A
C1895      H1898   1.083       .  S
C1899      C2039   1.480       .  S
C1899      C1900   1.395       .  A
C1899      C1904   1.403       .  A
C1900      C1901   1.401       .  A
C1900      H1905   1.085       .  S
C1901      C1902   1.402       .  A
C1902      C1903   1.402       .  A
C1902      H1906   1.083       .  S
C1903      C1904   1.403       .  A
C1904      H1907   1.085       .  S
C1908      C2025   1.479       .  S
C1908      C1909   1.397       .  A
C1908      C1913   1.396       .  A
C1909      C1910   1.397       .  A
C1909      H1914   1.085       .  S
C1910      C1911   1.403       .  A
C1911      C1912   1.404       .  A
C1911      H1915   1.083       .  S
C1912      C1913   1.406       .  A
C1913      H1916   1.085       .  S
C1917      C2014   1.505       .  S
C1917      C1918   1.407       .  A
C1917      C1922   1.399       .  A
C1918      C1919   1.414       .  A
C1918      H1923   1.083       .  S
C1919      C1920   1.399       .  A
C1920      C1921   1.397       .  A
C1920      H1924   1.084       .  S
C1921      C1922   1.395       .  A
C1922      H1925   1.084       .  S
C1926      C2000   1.495       .  S
C1926      C1927   1.400       .  A
C1926      C1931   1.404       .  A
C1927      C1928   1.401       .  A
C1927      H1932   1.084       .  S
C1928      C1929   1.405       .  A
C1929      C1930   1.402       .  A
C1929      H1933   1.084       .  S
C1930      C1931   1.409       .  A
C1931      H1934   1.085       .  S
O1935     Zr1947   2.451       .  S
O1935      C1937   1.288       .  A
O1936      C1937   1.286       .  A
C1937      C2140   1.485       .  S
O1938     Zr1950   2.492       .  S
O1938      C1940   1.296       .  A
O1939      C1940   1.273       .  A
C1940      C2042   1.512       .  S
O1941     Zr1950   2.506       .  S
O1941      C1943   1.297       .  A
O1942      C1943   1.267       .  A
C1943      C2154   1.518       .  S
O1944     Zr1947   2.438       .  S
O1944      C1946   1.285       .  A
O1945      C1946   1.287       .  A
C1946      C2011   1.482       .  S
Zr1947     O1948   2.434       .  S
Zr1947     O1949   2.434       .  S
Zr1947     O2693   2.370       .  S
Zr1947     O2694   2.379       .  S
O1948      H2731   0.990       .  S
O1949      H1990   0.990       .  S
O1949      H1994   0.990       .  S
Zr1950     O1951   2.435       .  S
Zr1950     O1952   2.435       .  S
Zr1950     O1954   2.385       .  S
Zr1950     O1953   2.380       .  S
O1951      H1992   0.990       .  S
O1951      H1995   0.990       .  S
O1952      H1985   0.990       .  S
O1953     Zr2687   2.370   1_545  S
O1954     Zr2687   2.379   1_545  S
O1954      H1981   0.966       .  S
O1955     Zr1967   2.459       .  S
O1955      C1957   1.290       .  A
O1956     Zr2714   2.408       .  S
O1956      C1957   1.284       .  A
C1957      C1997   1.494       .  S
O1958     Zr1970   2.448       .  S
O1958      C1960   1.286       .  A
O1959     Zr1973   2.417       .  S
O1959      C1960   1.287       .  A
C1960      C2126   1.482       .  S
O1961     Zr1970   2.464       .  S
O1961      C1963   1.290       .  A
O1962     Zr1974   2.397       .  S
O1962      C1963   1.281       .  A
C1963      C2028   1.507       .  S
O1964     Zr1967   2.462       .  S
O1964      C1966   1.290       .  A
O1965     Zr2713   2.385       .  S
O1965      C1966   1.280       .  A
C1966      C2109   1.476       .  S
Zr1967     O1968   2.433       .  S
Zr1967     O1969   2.433       .  S
Zr1967     O2715   2.375       .  S
Zr1967     O2716   2.379       .  S
Zr1967     O1979   2.374       .  S
Zr1967     O1977   2.384       .  S
O1968      H1988   0.990       .  S
O1968      H1993   0.990       .  S
O1969      H1989   0.990       .  S
Zr1970     O1971   2.434       .  S
Zr1970     O1972   2.435       .  S
Zr1970     O1976   2.387       .  S
Zr1970     O1975   2.376       .  S
Zr1970     O1980   2.374       .  S
Zr1970     O1978   2.384       .  S
O1971      H1987   0.990       .  S
O1972      H1986   0.990       .  S
O1972      H1996   0.990       .  S
Zr1973     O2705   2.385   1_545  S
Zr1973     O1976   2.362       .  S
Zr1973     O1978   2.375       .  S
Zr1973     O2719   2.361   1_545  S
Zr1974     O2696   2.408   1_545  S
Zr1974     O1975   2.367       .  S
Zr1974     O2717   2.365   1_545  S
Zr1974     O1980   2.371       .  S
O1975     Zr2707   2.375   1_545  S
O1975      H1983   0.966       .  S
O1976     Zr2707   2.379   1_545  S
O1977     Zr2714   2.365       .  S
O1978      H1982   0.966       .  S
O1979     Zr2713   2.361       .  S
O1979      H1984   0.966       .  S
H1991      O2688   0.990       .  S
C1997      C1998   1.414       .  A
C1997      C2002   1.417       .  A
C1998      C1999   1.404       .  A
C1998      C2003   1.449       .  S
C1999      C2000   1.412       .  A
C1999      C2006   1.450       .  S
C2000      C2001   1.414       .  A
C2001      C2002   1.417       .  A
C2001      C2004   1.450       .  S
C2002      C2005   1.449       .  S
C2004      N2009   1.157       .  T
C2005      N2007   1.157       .  T
C2006      N2008   1.156       .  T
C2011      C2012   1.410       .  A
C2011      C2016   1.402       .  A
C2012      C2013   1.416       .  A
C2012      C2017   1.450       .  S
C2013      C2014   1.422       .  A
C2013      C2020   1.450       .  S
C2014      C2015   1.424       .  A
C2015      C2016   1.402       .  A
C2015      C2018   1.452       .  S
C2016      C2759   1.449       .  S
C2017      N2024   1.157       .  T
C2018      N2023   1.158       .  T
C2019      C2756   1.449   1_545  S
C2019      N2021   1.156       .  T
C2020      N2022   1.157       .  T
C2025      C2026   1.404       .  A
C2025      C2030   1.407       .  A
C2026      C2027   1.399       .  A
C2026      C2031   1.458       .  S
C2027      C2028   1.427       .  A
C2027      C2034   1.450       .  S
C2028      C2029   1.427       .  A
C2029      C2030   1.418       .  A
C2029      C2032   1.450       .  S
C2030      C2033   1.450       .  S
C2031      N2038   1.157       .  T
C2032      N2037   1.157       .  T
C2033      N2035   1.157       .  T
C2034      N2036   1.156       .  T
C2039      C2040   1.409       .  A
C2039      C2044   1.402       .  A
C2040      C2041   1.420       .  A
C2040      C2045   1.450       .  S
C2041      C2042   1.423       .  A
C2041      C2048   1.449       .  S
C2042      C2043   1.436       .  A
C2043      C2044   1.399       .  A
C2043      C2046   1.454       .  S
C2044      C2047   1.459       .  S
C2045      N2052   1.157       .  T
C2046      N2051   1.157       .  T
C2047      N2049   1.157       .  T
C2048      N2050   1.157       .  T
C2053      C2054   1.422       .  A
C2053      C2058   1.416       .  A
C2054      C2055   1.417       .  A
C2054      C2059   1.450       .  S
C2055      C2056   1.410       .  A
C2055      C2062   1.450       .  S
C2056      C2057   1.406       .  A
C2057      C2058   1.403       .  A
C2057      C2060   1.446       .  S
C2058      C2061   1.450       .  S
C2059      N2066   1.157       .  T
C2060      N2065   1.154       .  T
C2061      N2063   1.156       .  T
C2062      N2064   1.157       .  T
C2067      C2068   1.404       .  A
C2067      C2072   1.416       .  A
C2068      C2069   1.399       .  A
C2068      C2073   1.440       .  S
C2069      C2070   1.416       .  A
C2069      C2076   1.454       .  S
C2070      C2071   1.420       .  A
C2071      C2072   1.419       .  A
C2071      C2074   1.450       .  S
C2072      C2075   1.450       .  S
C2073      N2080   1.153       .  T
C2074      N2079   1.157       .  T
C2075      N2077   1.157       .  T
C2076      N2078   1.158       .  T
C2081      C2082   1.401       .  A
C2081      C2086   1.411       .  A
C2082      C2083   1.401       .  A
C2082      C2087   1.450       .  S
C2083      C2084   1.418       .  A
C2083      C2090   1.446       .  S
C2084      C2085   1.421       .  A
C2085      C2086   1.419       .  A
C2085      C2088   1.449       .  S
C2086      C2089   1.449       .  S
C2087      N2094   1.157       .  T
C2088      N2093   1.157       .  T
C2089      N2091   1.157       .  T
C2090      N2092   1.155       .  T
C2095      C2096   1.426       .  A
C2095      C2100   1.437       .  A
C2096      C2097   1.420       .  A
C2096      C2101   1.449       .  S
C2097      C2098   1.407       .  A
C2097      C2104   1.450       .  S
C2098      C2099   1.404       .  A
C2099      C2100   1.403       .  A
C2099      C2102   1.457       .  S
C2100      C2103   1.455       .  S
C2101      N2108   1.157       .  T
C2102      N2107   1.157       .  T
C2103      N2105   1.158       .  T
C2104      N2106   1.157       .  T
C2109      C2110   1.409       .  A
C2109      C2114   1.406       .  A
C2110      C2111   1.415       .  A
C2110      C2115   1.450       .  S
C2111      C2112   1.419       .  A
C2111      C2118   1.449       .  S
C2112      C2113   1.417       .  A
C2113      C2114   1.401       .  A
C2113      C2116   1.453       .  S
C2114      C2857   1.447       .  S
C2115      N2122   1.157       .  T
C2116      N2121   1.157       .  T
C2117      C2854   1.447       .  S
C2117      N2119   1.154   1_565  T
C2118      N2120   1.157       .  T
C2123      C2124   1.425       .  A
C2123      C2128   1.430       .  A
C2124      C2125   1.420       .  A
C2124      C2129   1.449       .  S
C2125      C2126   1.407       .  A
C2125      C2132   1.449       .  S
C2126      C2127   1.398       .  A
C2127      C2128   1.400       .  A
C2127      C2130   1.452       .  S
C2128      C2131   1.453       .  S
C2129      N2136   1.157       .  T
C2131      N2133   1.158       .  T
C2132      N2134   1.157       .  T
C2137      C2138   1.416       .  A
C2137      C2142   1.420       .  A
C2138      C2139   1.405       .  A
C2138      C2143   1.450       .  S
C2139      C2140   1.405       .  A
C2139      C2886   1.445       .  S
C2140      C2141   1.410       .  A
C2141      C2142   1.417       .  A
C2141      C2144   1.449       .  S
C2142      C2145   1.450       .  S
C2143      N2150   1.157       .  T
C2144      N2149   1.157       .  T
C2145      N2147   1.157       .  T
C2146      C2879   1.445   1_545  S
C2146      N2148   1.156       .  T
C2151      C2152   1.405       .  A
C2151      C2156   1.412       .  A
C2152      C2153   1.399       .  A
C2152      C2157   1.460       .  S
C2153      C2154   1.439       .  A
C2153      C2160   1.458       .  S
C2154      C2155   1.424       .  A
C2155      C2156   1.424       .  A
C2155      C2158   1.449       .  S
C2156      C2159   1.449       .  S
C2157      N2164   1.157       .  T
C2158      N2163   1.158       .  T
C2159      N2161   1.157       .  T
C2165      C2166   1.413       .  A
C2165      C2170   1.412       .  A
C2166      C2167   1.416       .  A
C2166      C2171   1.451       .  S
C2167      C2168   1.419       .  A
C2167      C2174   1.450       .  S
C2168      C2169   1.417       .  A
C2169      C2170   1.408       .  A
C2169      C2172   1.449       .  S
C2170      C2173   1.451       .  S
C2171      N2178   1.157       .  T
C2172      N2177   1.156       .  T
C2173      N2175   1.156       .  T
C2174      N2176   1.157       .  T
C2179      C2180   1.410       .  A
C2179      C2184   1.406       .  A
C2180      C2181   1.415       .  A
C2180      C2185   1.450       .  S
C2181      C2182   1.420       .  A
C2181      C2188   1.451       .  S
C2182      C2183   1.419       .  A
C2183      C2184   1.409       .  A
C2183      C2186   1.448       .  S
C2184      C2187   1.450       .  S
C2185      N2192   1.157       .  T
C2186      N2191   1.156       .  T
C2187      N2189   1.157       .  T
C2188      N2190   1.157       .  T
C2193      C2194   1.411       .  A
C2193      C2198   1.402       .  A
C2194      C2195   1.419       .  A
C2194      C2199   1.452       .  S
C2195      C2196   1.428       .  A
C2195      C2202   1.447       .  S
C2196      C2197   1.427       .  A
C2197      C2198   1.406       .  A
C2197      C2200   1.452       .  S
C2198      C2201   1.449       .  S
C2199      N2206   1.157       .  T
C2200      N2205   1.157       .  T
C2201      N2203   1.156       .  T
C2202      N2204   1.158       .  T
C2207      C2208   1.425       .  A
C2207      C2212   1.431       .  A
C2208      C2209   1.419       .  A
C2208      C2213   1.450       .  S
C2209      C2210   1.409       .  A
C2209      C2216   1.451       .  S
C2210      C2211   1.407       .  A
C2211      C2212   1.410       .  A
C2211      C2214   1.454       .  S
C2212      C2215   1.454       .  S
C2213      N2220   1.157       .  T
C2214      N2219   1.157       .  T
C2215      N2217   1.158       .  T
C2216      N2218   1.157       .  T
O2221     Zr2233   2.423       .  S
O2221      C2223   1.285       .  A
O2222      C2223   1.298       .  A
C2223      C2285   1.495       .  S
O2224     Zr2236   2.404       .  S
O2224      C2226   1.279       .  A
O2225     Zr2260   2.467       .  S
O2225      C2226   1.294       .  A
C2226      C2410   1.468       .  S
O2227     Zr2236   2.389       .  S
O2227      C2229   1.278       .  A
O2228      C2229   1.298       .  A
C2229      C2401   1.473       .  S
O2230     Zr2233   2.412       .  S
O2230      C2232   1.284       .  A
O2231     Zr2260   2.481       .  S
O2231      C2232   1.297       .  A
C2232      C2365   1.486       .  S
Zr2233     O2234   2.433       .  S
Zr2233     O2235   2.436       .  S
Zr2233     O2239   2.353       .  S
Zr2233     O2240   2.367       .  S
Zr2233     O2263   2.368       .  S
O2234      H2277   0.990       .  S
O2235      H2276   0.989       .  S
O2235      H2280   0.990       .  S
Zr2236     O2237   2.438       .  S
Zr2236     O2238   2.437       .  S
Zr2236     O2240   2.359       .  S
Zr2236     O2239   2.359       .  S
Zr2236     O2266   2.360       .  S
O2237      H2278   0.990       .  S
O2237      H2281   0.990       .  S
O2238      H2271   0.990       .  S
O2240     Zr2260   2.392       .  S
O2240      H2267   0.966       .  S
O2241     Zr2253   2.420       .  S
O2241      C2243   1.285       .  A
O2242      C2243   1.296       .  A
C2243      C2356   1.485       .  S
O2244     Zr2256   2.403       .  S
O2244      C2246   1.279       .  A
O2245     Zr2259   2.480       .  S
O2245      C2246   1.298       .  A
C2246      C2383   1.470       .  S
O2247     Zr2256   2.420       .  S
O2247      C2249   1.282       .  A
O2248      C2249   1.295       .  A
C2249      C2392   1.475       .  S
O2250     Zr2253   2.424       .  S
O2250      C2252   1.286       .  A
O2251     Zr2259   2.477       .  S
O2251      C2252   1.297       .  A
C2252      C2376   1.489       .  S
Zr2253     O2254   2.438       .  S
Zr2253     O2255   2.436       .  S
Zr2253     O2261   2.365       .  S
Zr2253     O2262   2.351       .  S
Zr2253     O2265   2.374       .  S
O2254      H2274   0.990       .  S
O2254      H2279   0.990       .  S
O2255      H2275   0.990       .  S
Zr2256     O2257   2.434       .  S
Zr2256     O2258   2.435       .  S
Zr2256     O2262   2.362       .  S
Zr2256     O2261   2.364       .  S
Zr2256     O2264   2.373       .  S
O2257      H2273   0.990       .  S
O2258      H2272   0.990       .  S
O2258      H2282   0.990       .  S
Zr2259     O2262   2.388       .  S
Zr2259     O2264   2.410       .  S
Zr2259     O2265   2.405       .  S
Zr2260     O2263   2.403       .  S
Zr2260     O2266   2.396       .  S
O2261      H2269   0.965       .  S
O2264      H2268   0.966       .  S
O2265      H2270   0.966       .  S
C2283      C2950   1.492       .  S
C2283      C2284   1.403       .  A
C2283      C2288   1.393       .  A
C2284      C2285   1.414       .  A
C2284      H2289   1.084       .  S
C2285      C2286   1.417       .  A
C2286      C2287   1.419       .  A
C2286      H2290   1.082       .  S
C2287      C2300   1.486       .  S
C2287      C2288   1.402       .  A
C2288      H2291   1.085       .  S
O2292     Zr2304   2.476       .  S
O2292      C2294   1.295       .  A
O2293      C2294   1.283       .  A
C2294      C2403   1.480       .  S
O2295     Zr2307   2.459       .  S
O2295      C2297   1.293       .  A
O2296      C2297   1.283       .  A
C2297      C2374   1.484       .  S
O2298     Zr2307   2.457       .  S
O2298      C2300   1.293       .  A
O2299      C2300   1.284       .  A
O2301     Zr2304   2.475       .  S
O2301      C2303   1.294       .  A
O2302      C2303   1.284       .  A
C2303      C2385   1.479       .  S
Zr2304     O2305   2.433       .  S
Zr2304     O2306   2.435       .  S
Zr2304     O2310   2.381       .  S
Zr2304     O2311   2.381       .  S
Zr2304     O2334   2.381       .  S
O2305      H2348   0.990       .  S
O2306      H2347   0.990       .  S
O2306      H2351   0.990       .  S
Zr2307     O2308   2.435       .  S
Zr2307     O2309   2.435       .  S
Zr2307     O2311   2.367       .  S
Zr2307     O2310   2.372       .  S
O2308      H2349   0.990       .  S
O2308      H2352   0.990       .  S
O2309      H2342   0.990       .  S
O2311      H2338   0.966       .  S
O2312     Zr2324   2.487       .  S
O2312      C2314   1.296       .  A
O2313     Zr2331   2.400       .  S
O2313      C2314   1.281       .  A
C2314      C2394   1.478       .  S
O2315     Zr2327   2.449       .  S
O2315      C2317   1.291       .  A
O2316     Zr2330   2.431       .  S
O2316      C2317   1.286       .  A
C2317      C2367   1.486       .  S
O2318     Zr2327   2.437       .  S
O2318      C2320   1.289       .  A
O2319     Zr2331   2.432       .  S
O2319      C2320   1.285       .  A
C2320      C2358   1.484       .  S
O2321     Zr2324   2.472       .  S
O2321      C2323   1.294       .  A
O2322     Zr2330   2.391       .  S
O2322      C2323   1.280       .  A
C2323      C2412   1.470       .  S
Zr2324     O2325   2.435       .  S
Zr2324     O2326   2.434       .  S
Zr2324     O2332   2.375       .  S
Zr2324     O2333   2.383       .  S
Zr2324     O2336   2.382       .  S
O2325      H2345   0.990       .  S
O2325      H2350   0.990       .  S
O2326      H2346   0.990       .  S
Zr2327     O2328   2.434       .  S
Zr2327     O2329   2.436       .  S
Zr2327     O2333   2.365       .  S
Zr2327     O2332   2.370       .  S
Zr2327     O2337   2.374       .  S
Zr2327     O2335   2.369       .  S
O2328      H2344   0.990       .  S
O2329      H2343   0.990       .  S
O2329      H2353   0.990       .  S
Zr2330     O2333   2.383       .  S
Zr2330     O2335   2.377       .  S
Zr2330     O2336   2.397       .  S
Zr2331     O2332   2.387       .  S
Zr2331     O2337   2.381       .  S
O2332      H2340   0.966       .  S
O2335      H2339   0.966       .  S
O2336      H2341   0.966       .  S
C2354      C2936   1.541       .  S
C2354      C2355   1.419       .  A
C2354      C2359   1.410       .  A
C2355      C2356   1.416       .  A
C2355      H2360   1.071       .  S
C2356      C2357   1.406       .  A
C2357      C2358   1.404       .  A
C2357      H2361   1.084       .  S
C2358      C2359   1.402       .  A
C2359      H2362   1.072       .  S
C2363      C2922   1.503       .  S
C2363      C2364   1.405       .  A
C2363      C2368   1.400       .  A
C2364      C2365   1.412       .  A
C2364      H2369   1.084       .  S
C2365      C2366   1.412       .  A
C2366      C2367   1.414       .  A
C2366      H2370   1.083       .  S
C2367      C2368   1.405       .  A
C2368      H2371   1.084       .  S
C2372      C2905   1.494       .  S
C2372      C2373   1.395       .  A
C2372      C2377   1.403       .  A
C2373      C2374   1.401       .  A
C2373      H2378   1.085       .  S
C2374      C2375   1.418       .  A
C2375      C2376   1.415       .  A
C2375      H2379   1.083       .  S
C2376      C2377   1.411       .  A
C2377      H2380   1.085       .  S
C2381      C2891   1.489       .  S
C2381      C2382   1.400       .  A
C2381      C2386   1.406       .  A
C2382      C2383   1.395       .  A
C2382      H2387   1.086       .  S
C2383      C2384   1.403       .  A
C2384      C2385   1.415       .  A
C2384      H2388   1.083       .  S
C2385      C2386   1.410       .  A
C2386      H2389   1.083       .  S
C2390      C2877   1.500       .  S
C2390      C2391   1.408       .  A
C2390      C2395   1.410       .  A
C2391      C2392   1.404       .  A
C2391      H2396   1.084       .  S
C2392      C2393   1.405       .  A
C2393      C2394   1.409       .  A
C2393      H2397   1.084       .  S
C2394      C2395   1.401       .  A
C2395      H2398   1.084       .  S
C2399      C2863   1.511       .  S
C2399      C2400   1.397       .  A
C2399      C2404   1.413       .  A
C2400      C2401   1.397       .  A
C2400      H2405   1.082       .  S
C2401      C2402   1.401       .  A
C2402      C2403   1.414       .  A
C2402      H2406   1.082       .  S
C2403      C2404   1.411       .  A
C2404      H2407   1.081       .  S
C2408      C2852   1.494       .  S
C2408      C2409   1.408       .  A
C2408      C2413   1.405       .  A
C2409      C2410   1.405       .  A
C2409      H2414   1.083       .  S
C2410      C2411   1.403       .  A
C2411      C2412   1.407       .  A
C2411      H2415   1.084       .  S
C2412      C2413   1.396       .  A
C2413      H2416   1.084       .  S
O2417     Zr2429   2.431       .  S
O2417      C2419   1.284       .  A
O2418     Zr2455   2.444       .  S
O2418      C2419   1.291       .  A
C2419      C2919   1.486       .  S
O2420     Zr2432   2.494   1_554  S
O2420      C2422   1.297       .  A
O2421     Zr2456   2.374       .  S
O2421      C2422   1.276       .  A
C2422      C2835   1.515       .  S
O2423     Zr2432   2.480       .  S
O2423      C2425   1.296       .  A
O2424     Zr2455   2.409       .  S
O2424      C2425   1.283       .  A
C2425      C2947   1.516       .  S
O2426     Zr2429   2.443   1_554  S
O2426      C2428   1.287       .  A
O2427     Zr2456   2.439       .  S
O2427      C2428   1.291       .  A
C2428      C2807   1.494       .  S
Zr2429     O2430   2.434       .  S
Zr2429     O2431   2.434       .  S
Zr2429     O2435   2.377       .  S
Zr2429     O2436   2.370   1_556  S
Zr2429     O2459   2.375   1_556  S
Zr2429     O2461   2.380       .  S
O2430      H2473   0.990       .  S
O2431      H2472   0.990       .  S
O2431      H2476   0.990       .  S
Zr2432     O2433   2.434       .  S
Zr2432     O2434   2.434       .  S
Zr2432     O2436   2.375   1_556  S
Zr2432     O2435   2.382       .  S
Zr2432     O2460   2.381       .  S
Zr2432     O2462   2.378   1_556  S
O2433      H2474   0.990   1_556  S
O2433      H2477   0.990       .  S
O2434      H2467   0.990       .  S
O2435     Zr2455   2.377       .  S
O2436     Zr2456   2.375       .  S
O2436      H2463   0.966       .  S
O2437     Zr2449   2.457   1_554  S
O2437      C2439   1.289       .  A
O2438     Zr2456   2.410       .  S
O2438      C2439   1.285       .  A
C2439      C2796   1.483       .  S
O2440     Zr2452   2.453       .  S
O2440      C2442   1.290       .  A
O2441     Zr2455   2.423       .  S
O2441      C2442   1.287       .  A
C2442      C2908   1.497       .  S
O2443     Zr2452   2.449   1_554  S
O2443      C2445   1.287       .  A
O2444     Zr2456   2.425       .  S
O2444      C2445   1.288       .  A
C2445      C2821   1.483       .  S
O2446     Zr2449   2.430       .  S
O2446      C2448   1.285       .  A
O2447     Zr2455   2.436       .  S
O2447      C2448   1.289       .  A
C2448      C2933   1.483       .  S
Zr2449     O2450   2.436       .  S
Zr2449     O2451   2.433       .  S
Zr2449     O2457   2.365   1_556  S
Zr2449     O2458   2.375       .  S
Zr2449     O2461   2.385       .  S
Zr2449     O2459   2.374   1_556  S
O2450      H2470   0.990   1_556  S
O2450      H2475   0.990   1_556  S
O2451      H2471   0.990   1_556  S
Zr2452     O2453   2.434       .  S
Zr2452     O2454   2.434       .  S
Zr2452     O2458   2.372       .  S
Zr2452     O2457   2.377   1_556  S
Zr2452     O2462   2.377   1_556  S
Zr2452     O2460   2.373       .  S
O2453      H2469   0.990       .  S
O2454      H2468   0.990   1_556  S
O2454      H2478   0.990       .  S
Zr2455     O2458   2.377       .  S
Zr2455     O2460   2.388       .  S
Zr2455     O2461   2.381       .  S
Zr2456     O2457   2.373       .  S
Zr2456     O2459   2.365       .  S
Zr2456     O2462   2.378       .  S
O2457      H2465   0.966       .  S
O2460      H2464   0.966       .  S
O2461      H2466   0.966       .  S
C2479      C2793   1.501       .  S
C2479      C2480   1.408       .  A
C2479      C2484   1.400       .  A
C2480      C2481   1.410       .  A
C2480      H2485   1.084       .  S
C2481      C2508   1.471       .  S
C2481      C2482   1.399       .  A
C2482      C2483   1.400       .  A
C2482      H2486   1.084       .  S
C2483      C2570   1.452       .  S
C2483      C2484   1.398       .  A
C2484      H2487   1.084       .  S
C2488      C2838   1.485       .  S
C2488      C2489   1.402       .  A
C2488      C2493   1.399       .  A
C2489      C2490   1.405       .  A
C2489      H2494   1.084       .  S
C2490      C2590   1.467       .  S
C2490      C2491   1.406       .  A
C2491      C2492   1.403       .  A
C2491      H2495   1.083       .  S
C2492      C2528   1.466       .  S
C2492      C2493   1.401       .  A
C2493      H2496   1.085       .  S
C2497      C2810   1.499       .  S
C2497      C2498   1.402       .  A
C2497      C2502   1.400       .  A
C2498      C2499   1.413       .  A
C2498      H2503   1.084       .  S
C2499      C2517   1.470       .  S
C2499      C2500   1.402       .  A
C2500      C2501   1.401       .  A
C2500      H2504   1.084       .  S
C2501      C2579   1.455       .  S
C2501      C2502   1.395       .  A
C2502      H2505   1.085       .  S
O2506     Zr2518   2.401       .  S
O2506      C2508   1.281       .  A
O2507      C2508   1.293       .  A
O2509     Zr2521   2.409       .  S
O2509      C2511   1.280       .  A
O2510      C2511   1.291       .  A
C2511      C2668   1.459       .  S
O2512     Zr2521   2.388       .  S
O2512      C2514   1.276       .  A
O2513      C2514   1.293       .  A
C2514      C2661   1.452       .  S
O2515     Zr2518   2.379       .  S
O2515      C2517   1.277       .  A
O2516      C2517   1.296       .  A
Zr2518     O2519   2.433       .  S
Zr2518     O2520   2.439       .  S
Zr2518     O2524   2.353       .  S
Zr2518     O2525   2.364       .  S
O2519      H2562   0.990       .  S
O2520      H2561   0.990       .  S
O2520      H2565   0.990       .  S
Zr2521     O2522   2.438       .  S
Zr2521     O2523   2.436       .  S
Zr2521     O2525   2.357       .  S
Zr2521     O2524   2.368       .  S
O2522      H2563   0.990       .  S
O2522      H2566   0.990       .  S
O2523      H2556   0.990       .  S
O2525      H2552   0.966       .  S
O2526     Zr2538   2.418       .  S
O2526      C2528   1.285       .  A
O2527     Zr2545   2.443       .  S
O2527      C2528   1.290       .  A
O2529     Zr2541   2.400       .  S
O2529      C2531   1.278       .  A
O2530     Zr2544   2.460       .  S
O2530      C2531   1.294       .  A
C2531      C2643   1.465       .  S
O2532     Zr2541   2.395       .  S
O2532      C2534   1.278       .  A
O2533     Zr2545   2.462       .  S
O2533      C2534   1.294       .  A
C2534      C2650   1.459       .  S
O2535     Zr2538   2.410       .  S
O2535      C2537   1.283       .  A
O2536     Zr2544   2.456       .  S
O2536      C2537   1.292       .  A
C2537      C2632   1.468       .  S
Zr2538     O2539   2.437       .  S
Zr2538     O2540   2.433       .  S
Zr2538     O2546   2.350       .  S
Zr2538     O2547   2.362       .  S
Zr2538     O2550   2.358       .  S
Zr2538     O2548   2.357       .  S
O2539      H2559   0.990       .  S
O2539      H2564   0.989       .  S
O2540      H2560   0.990       .  S
Zr2541     O2542   2.434       .  S
Zr2541     O2543   2.435       .  S
Zr2541     O2547   2.365       .  S
Zr2541     O2546   2.370       .  S
Zr2541     O2551   2.364       .  S
Zr2541     O2549   2.360       .  S
O2542      H2558   0.990       .  S
O2543      H2557   0.990       .  S
O2543      H2567   0.990       .  S
Zr2544     O2547   2.381       .  S
Zr2544     O2549   2.401       .  S
Zr2544     O2550   2.383       .  S
Zr2545     O2546   2.391       .  S
Zr2545     O2548   2.382       .  S
Zr2545     O2551   2.396       .  S
O2546      H2554   0.965       .  S
O2549      H2553   0.966       .  S
O2550      H2555   0.966       .  S
O2568     Zr2580   2.411       .  S
O2568      C2570   1.281       .  A
O2569     Zr2606   2.427       .  S
O2569      C2570   1.287       .  A
O2571      C2573   1.280       .  A
O2572     Zr2607   2.467       .  S
O2572      C2573   1.294       .  A
C2573      C2670   1.474       .  S
O2574     Zr2583   2.378       .  S
O2574      C2576   1.276       .  A
O2575     Zr2606   2.468       .  S
O2575      C2576   1.295       .  A
C2576      C2659   1.469       .  S
O2577      C2579   1.278       .  A
O2578     Zr2607   2.455       .  S
O2578      C2579   1.294       .  A
Zr2580     O2581   2.433       .  S
Zr2580     O2586   2.362       .  S
Zr2580     O2612   2.361       .  S
O2581      H2624   0.990       .  S
Zr2583     O2584   2.439       .  S
Zr2583     O2586   2.357       .  S
Zr2583     O2611   2.359       .  S
O2584      H2628   0.990       .  S
O2586     Zr2606   2.374       .  S
O2587     Zr2607   2.383       .  S
O2587      H2614   0.965       .  S
O2588     Zr2600   2.419       .  S
O2588      C2590   1.282       .  A
O2589     Zr2607   2.457       .  S
O2589      C2590   1.293       .  A
O2591      C2593   1.283       .  A
O2592     Zr2606   2.429       .  S
O2592      C2593   1.287       .  A
C2593      C2641   1.459       .  S
O2594     Zr2603   2.403       .  S
O2594      C2596   1.281       .  A
O2595     Zr2607   2.446       .  S
O2595      C2596   1.290       .  A
C2596      C2652   1.463       .  S
O2597      C2599   1.282       .  A
O2598     Zr2606   2.449       .  S
O2598      C2599   1.291       .  A
C2599      C2634   1.463       .  S
Zr2600     O2601   2.437       .  S
Zr2600     O2602   2.435       .  S
Zr2600     O2608   2.368       .  S
Zr2600     O2610   2.369       .  S
O2601      H2621   0.990       .  S
O2601      H2626   0.990       .  S
O2602      H2622   0.990       .  S
Zr2603     O2604   2.434       .  S
Zr2603     O2605   2.436       .  S
Zr2603     O2608   2.359       .  S
Zr2603     O2613   2.363       .  S
O2605      H2619   0.990       .  S
O2605      H2629   0.990       .  S
Zr2606     O2609   2.384       .  S
Zr2606     O2611   2.384       .  S
Zr2606     O2612   2.395       .  S
Zr2607     O2608   2.395       .  S
Zr2607     O2610   2.398       .  S
Zr2607     O2613   2.387       .  S
O2608      H2616   0.966       .  S
O2611      H2615   0.966       .  S
O2612      H2617   0.966       .  S
C2630      C2824   1.504       .  S
C2630      C2631   1.406       .  A
C2630      C2635   1.406       .  A
C2631      C2632   1.404       .  A
C2631      H2636   1.084       .  S
C2632      C2633   1.399       .  A
C2633      C2634   1.403       .  A
C2633      H2637   1.083       .  S
C2634      C2635   1.405       .  A
C2635      H2638   1.083       .  S
C2639      C2779   1.480       .  S
C2639      C2640   1.395       .  A
C2639      C2644   1.403       .  A
C2640      C2641   1.401       .  A
C2640      H2645   1.085       .  S
C2641      C2642   1.402       .  A
C2642      C2643   1.402       .  A
C2642      H2646   1.083       .  S
C2643      C2644   1.403       .  A
C2644      H2647   1.085       .  S
C2648      C2765   1.479       .  S
C2648      C2649   1.397       .  A
C2648      C2653   1.396       .  A
C2649      C2650   1.397       .  A
C2649      H2654   1.085       .  S
C2650      C2651   1.403       .  A
C2651      C2652   1.404       .  A
C2651      H2655   1.083       .  S
C2652      C2653   1.406       .  A
C2653      H2656   1.085       .  S
C2657      C2754   1.505       .  S
C2657      C2658   1.407       .  A
C2657      C2662   1.399       .  A
C2658      C2659   1.414       .  A
C2658      H2663   1.083       .  S
C2659      C2660   1.399       .  A
C2660      C2661   1.397       .  A
C2660      H2664   1.084       .  S
C2661      C2662   1.395       .  A
C2662      H2665   1.084       .  S
C2666      C2740   1.495       .  S
C2666      C2667   1.400       .  A
C2666      C2671   1.404       .  A
C2667      C2668   1.401       .  A
C2667      H2672   1.084       .  S
C2668      C2669   1.405       .  A
C2669      C2670   1.402       .  A
C2669      H2673   1.084       .  S
C2670      C2671   1.409       .  A
C2671      H2674   1.085       .  S
O2675     Zr2687   2.451       .  S
O2675      C2677   1.288       .  A
O2676      C2677   1.286       .  A
C2677      C2880   1.485       .  S
O2678     Zr2690   2.492       .  S
O2678      C2680   1.296       .  A
O2679      C2680   1.273       .  A
C2680      C2782   1.512       .  S
O2681     Zr2690   2.506       .  S
O2681      C2683   1.297       .  A
O2682      C2683   1.267       .  A
C2683      C2894   1.518       .  S
O2684     Zr2687   2.438       .  S
O2684      C2686   1.285       .  A
O2685      C2686   1.287       .  A
C2686      C2751   1.482       .  S
Zr2687     O2688   2.434       .  S
Zr2687     O2689   2.434       .  S
O2689      H2730   0.990       .  S
O2689      H2734   0.990       .  S
Zr2690     O2691   2.435       .  S
Zr2690     O2692   2.435       .  S
Zr2690     O2694   2.385       .  S
Zr2690     O2693   2.380       .  S
O2691      H2732   0.990       .  S
O2691      H2735   0.990       .  S
O2692      H2725   0.990       .  S
O2694      H2721   0.966       .  S
O2695     Zr2707   2.459       .  S
O2695      C2697   1.290       .  A
O2696      C2697   1.284       .  A
C2697      C2737   1.494       .  S
O2698     Zr2710   2.448       .  S
O2698      C2700   1.286       .  A
O2699     Zr2713   2.417       .  S
O2699      C2700   1.287       .  A
C2700      C2866   1.482       .  S
O2701     Zr2710   2.464       .  S
O2701      C2703   1.290       .  A
O2702     Zr2714   2.397       .  S
O2702      C2703   1.281       .  A
C2703      C2768   1.507       .  S
O2704     Zr2707   2.462       .  S
O2704      C2706   1.290       .  A
O2705      C2706   1.280       .  A
C2706      C2849   1.476       .  S
Zr2707     O2708   2.433       .  S
Zr2707     O2709   2.433       .  S
Zr2707     O2719   2.374       .  S
Zr2707     O2717   2.384       .  S
O2708      H2728   0.990       .  S
O2708      H2733   0.990       .  S
O2709      H2729   0.990       .  S
Zr2710     O2711   2.434       .  S
Zr2710     O2712   2.435       .  S
Zr2710     O2716   2.387       .  S
Zr2710     O2715   2.376       .  S
Zr2710     O2720   2.374       .  S
Zr2710     O2718   2.384       .  S
O2711      H2727   0.990       .  S
O2712      H2726   0.990       .  S
O2712      H2736   0.990       .  S
Zr2713     O2716   2.362       .  S
Zr2713     O2718   2.375       .  S
Zr2714     O2715   2.367       .  S
Zr2714     O2720   2.371       .  S
O2715      H2723   0.966       .  S
O2718      H2722   0.966       .  S
O2719      H2724   0.966       .  S
C2737      C2738   1.414       .  A
C2737      C2742   1.417       .  A
C2738      C2739   1.404       .  A
C2738      C2743   1.449       .  S
C2739      C2740   1.412       .  A
C2739      C2746   1.450       .  S
C2740      C2741   1.414       .  A
C2741      C2742   1.417       .  A
C2741      C2744   1.450       .  S
C2742      C2745   1.449       .  S
C2744      N2749   1.157       .  T
C2745      N2747   1.157       .  T
C2746      N2748   1.156       .  T
C2751      C2752   1.410       .  A
C2751      C2756   1.402       .  A
C2752      C2753   1.416       .  A
C2752      C2757   1.450       .  S
C2753      C2754   1.422       .  A
C2753      C2760   1.450       .  S
C2754      C2755   1.424       .  A
C2755      C2756   1.402       .  A
C2755      C2758   1.452       .  S
C2757      N2764   1.157       .  T
C2758      N2763   1.158   1_565  T
C2759      N2761   1.156       .  T
C2760      N2762   1.157       .  T
C2765      C2766   1.404       .  A
C2765      C2770   1.407       .  A
C2766      C2767   1.399       .  A
C2766      C2771   1.458       .  S
C2767      C2768   1.427       .  A
C2767      C2774   1.450       .  S
C2768      C2769   1.427       .  A
C2769      C2770   1.418       .  A
C2769      C2772   1.450       .  S
C2770      C2773   1.450       .  S
C2771      N2778   1.157       .  T
C2772      N2777   1.157       .  T
C2773      N2775   1.157       .  T
C2774      N2776   1.156       .  T
C2779      C2780   1.409       .  A
C2779      C2784   1.402       .  A
C2780      C2781   1.420       .  A
C2780      C2785   1.450       .  S
C2781      C2782   1.423       .  A
C2781      C2788   1.449       .  S
C2782      C2783   1.436       .  A
C2783      C2784   1.399       .  A
C2783      C2786   1.454       .  S
C2784      C2787   1.459       .  S
C2785      N2792   1.157       .  T
C2786      N2791   1.157       .  T
C2787      N2789   1.157       .  T
C2788      N2790   1.157       .  T
C2793      C2794   1.422       .  A
C2793      C2798   1.416       .  A
C2794      C2795   1.417       .  A
C2794      C2799   1.450       .  S
C2795      C2796   1.410       .  A
C2795      C2802   1.450       .  S
C2796      C2797   1.406       .  A
C2797      C2798   1.403       .  A
C2797      C2800   1.446       .  S
C2798      C2801   1.450       .  S
C2799      N2806   1.157       .  T
C2800      N2805   1.154       .  T
C2801      N2803   1.156       .  T
C2802      N2804   1.157       .  T
C2807      C2808   1.404       .  A
C2807      C2812   1.416       .  A
C2808      C2809   1.399       .  A
C2808      C2813   1.440       .  S
C2809      C2810   1.416       .  A
C2809      C2816   1.454       .  S
C2810      C2811   1.420       .  A
C2811      C2812   1.419       .  A
C2811      C2814   1.450       .  S
C2812      C2815   1.450       .  S
C2813      N2820   1.153       .  T
C2814      N2819   1.157       .  T
C2815      N2817   1.157       .  T
C2816      N2818   1.158       .  T
C2821      C2822   1.401       .  A
C2821      C2826   1.411       .  A
C2822      C2823   1.401       .  A
C2822      C2827   1.450       .  S
C2823      C2824   1.418       .  A
C2823      C2830   1.446       .  S
C2824      C2825   1.421       .  A
C2825      C2826   1.419       .  A
C2825      C2828   1.449       .  S
C2826      C2829   1.449       .  S
C2827      N2834   1.157       .  T
C2828      N2833   1.157       .  T
C2829      N2831   1.157       .  T
C2830      N2832   1.155       .  T
C2835      C2836   1.426       .  A
C2835      C2840   1.437       .  A
C2836      C2837   1.420       .  A
C2836      C2841   1.449       .  S
C2837      C2838   1.407       .  A
C2837      C2844   1.450       .  S
C2838      C2839   1.404       .  A
C2839      C2840   1.403       .  A
C2839      C2842   1.457       .  S
C2840      C2843   1.455       .  S
C2841      N2848   1.157       .  T
C2842      N2847   1.157       .  T
C2843      N2845   1.158       .  T
C2844      N2846   1.157       .  T
C2849      C2850   1.409       .  A
C2849      C2854   1.406       .  A
C2850      C2851   1.415       .  A
C2850      C2855   1.450       .  S
C2851      C2852   1.419       .  A
C2851      C2858   1.449       .  S
C2852      C2853   1.417       .  A
C2853      C2854   1.401       .  A
C2853      C2856   1.453       .  S
C2855      N2862   1.157       .  T
C2856      N2861   1.157       .  T
C2857      N2859   1.154       .  T
C2858      N2860   1.157       .  T
C2863      C2864   1.425       .  A
C2863      C2868   1.430       .  A
C2864      C2865   1.420       .  A
C2864      C2869   1.449       .  S
C2865      C2866   1.407       .  A
C2865      C2872   1.449       .  S
C2866      C2867   1.398       .  A
C2867      C2868   1.400       .  A
C2867      C2870   1.452       .  S
C2868      C2871   1.453       .  S
C2869      N2876   1.157       .  T
C2871      N2873   1.158       .  T
C2872      N2874   1.157       .  T
C2877      C2878   1.416       .  A
C2877      C2882   1.420       .  A
C2878      C2879   1.405       .  A
C2878      C2883   1.450       .  S
C2879      C2880   1.405       .  A
C2880      C2881   1.410       .  A
C2881      C2882   1.417       .  A
C2881      C2884   1.449       .  S
C2882      C2885   1.450       .  S
C2883      N2890   1.157   1_565  T
C2884      N2889   1.157       .  T
C2885      N2887   1.157       .  T
C2886      N2888   1.156       .  T
C2891      C2892   1.405       .  A
C2891      C2896   1.412       .  A
C2892      C2893   1.399       .  A
C2892      C2897   1.460       .  S
C2893      C2894   1.439       .  A
C2893      C2900   1.458       .  S
C2894      C2895   1.424       .  A
C2895      C2896   1.424       .  A
C2895      C2898   1.449       .  S
C2896      C2899   1.449       .  S
C2897      N2904   1.157       .  T
C2898      N2903   1.158       .  T
C2899      N2901   1.157       .  T
C2905      C2906   1.413       .  A
C2905      C2910   1.412       .  A
C2906      C2907   1.416       .  A
C2906      C2911   1.451       .  S
C2907      C2908   1.419       .  A
C2907      C2914   1.450       .  S
C2908      C2909   1.417       .  A
C2909      C2910   1.408       .  A
C2909      C2912   1.449       .  S
C2910      C2913   1.451       .  S
C2911      N2918   1.157       .  T
C2912      N2917   1.156       .  T
C2913      N2915   1.156       .  T
C2914      N2916   1.157       .  T
C2919      C2920   1.410       .  A
C2919      C2924   1.406       .  A
C2920      C2921   1.415       .  A
C2920      C2925   1.450       .  S
C2921      C2922   1.420       .  A
C2921      C2928   1.451       .  S
C2922      C2923   1.419       .  A
C2923      C2924   1.409       .  A
C2923      C2926   1.448       .  S
C2924      C2927   1.450       .  S
C2925      N2932   1.157       .  T
C2926      N2931   1.156       .  T
C2927      N2929   1.157       .  T
C2928      N2930   1.157       .  T
C2933      C2934   1.411       .  A
C2933      C2938   1.402       .  A
C2934      C2935   1.419       .  A
C2934      C2939   1.452       .  S
C2935      C2936   1.428       .  A
C2935      C2942   1.447       .  S
C2936      C2937   1.427       .  A
C2937      C2938   1.406       .  A
C2937      C2940   1.452       .  S
C2938      C2941   1.449       .  S
C2939      N2946   1.157       .  T
C2940      N2945   1.157       .  T
C2941      N2943   1.156       .  T
C2942      N2944   1.158       .  T
C2947      C2948   1.425       .  A
C2947      C2952   1.431       .  A
C2948      C2949   1.419       .  A
C2948      C2953   1.450       .  S
C2949      C2950   1.409       .  A
C2949      C2956   1.451       .  S
C2950      C2951   1.407       .  A
C2951      C2952   1.410       .  A
C2951      C2954   1.454       .  S
C2952      C2955   1.454       .  S
C2953      N2960   1.157       .  T
C2954      N2959   1.157       .  T
C2955      N2957   1.158       .  T
C2956      N2958   1.157       .  T
