geometry optimzed in LAMMPS
_audit_creation_date              2020-11-30 
_audit_creation_method            'lammps2cif' 
_symmetry_space_group_name_H-M    'P1' 
_symmetry_Int_Tables_number       1 
_symmetry_cell_setting            triclinic 
loop_ 
_symmetry_equiv_pos_as_xyz 
  x,y,z 
_cell_length_a                    29.99118053483127 
_cell_length_b                    26.175567045108245 
_cell_length_c                    32.71440954151887 
_cell_angle_alpha                 90.83919895836206 
_cell_angle_beta                  91.05173531031406 
_cell_angle_gamma                 89.45513000752148 
loop_ 
_atom_site_label 
_atom_site_type_symbol 
_atom_site_fract_x 
_atom_site_fract_y 
_atom_site_fract_z 
_atom_site_charge 
O1          O  0.89046562  0.43602390  0.85383938    -0.74870
O2          O  0.92723706  0.36984731  0.82227499    -0.53780
C3          C  0.89557332  0.38883812  0.84451368     0.78860
O4          O  0.90190545  0.60117074  0.69888081    -0.59470
O5          O  0.94049985  0.66134588  0.73561970    -0.52500
C6          C  0.91183134  0.64785407  0.70765300     0.70870
O7          O  0.90014464  0.42950477  0.69588701    -0.74030
O8          O  0.93747699  0.36790188  0.73201778    -0.54590
C9          C  0.91023015  0.38251889  0.70345309     0.76880
O10         O  0.92747733  0.60153147  0.87258009    -0.59170
O11         O  0.92998572  0.65885036  0.82330554    -0.52290
C12         C  0.91069576  0.64007372  0.85458756     0.73470
Zr13       Zr  0.92187679  0.51762992  0.84226320     2.54710
O14         O  0.84265765  0.53874774  0.83913269    -0.79740
O15         O  0.91559237  0.50738910  0.91586243    -0.93150
Zr16       Zr  0.92000249  0.51489684  0.72149306     2.64680
O17         O  0.83963352  0.51228976  0.73019735    -0.98110
O18         O  0.91477892  0.51801225  0.64726562    -0.80170
O19         O  0.92018737  0.46651066  0.78174316    -0.83530
O20         O  0.92074324  0.56626780  0.78174126    -2.18240
O21         O  0.08214664  0.59212410  0.86195781    -0.66920
O22         O  0.05095945  0.65535940  0.82271320    -0.51480
C23         C  0.08102706  0.63744028  0.84794724     0.71850
O24         O  0.07135440  0.42344282  0.70095014    -0.59820
O25         O  0.03043748  0.36395431  0.73414122    -0.51800
C26         C  0.05963849  0.37719004  0.70796503     0.73660
O27         O  0.06880997  0.59539779  0.69708661    -0.71220
O28         O  0.03305521  0.65793664  0.73326491    -0.49900
C29         C  0.05957464  0.64266454  0.70487571     0.75040
O30         O  0.06000444  0.42673371  0.87005792    -0.66550
O31         O  0.05111607  0.37371666  0.81619043    -0.53750
C32         C  0.07361560  0.38982922  0.84782976     0.73420
Zr33       Zr  0.05066492  0.51119555  0.84391481     2.77540
O34         O  0.13094205  0.49682237  0.84100551    -0.97300
O35         O  0.05177333  0.52025443  0.91805131    -0.78120
Zr36       Zr  0.05115867  0.51043590  0.72232125     2.70070
O37         O  0.13200101  0.51059592  0.73043351    -0.79370
O38         O  0.05295046  0.50757653  0.64792448    -0.98450
Zr39       Zr  0.98470918  0.41252591  0.78184193     2.21500
Zr40       Zr  0.98853968  0.61468903  0.78331466     2.11130
O41         O  0.05267915  0.55978939  0.78317594    -2.47140
O42         O  0.05125876  0.46160188  0.78272067    -0.79160
O43         O  0.98801827  0.56627003  0.84472561    -0.71360
O44         O  0.98474185  0.46263733  0.72098742    -2.32310
O45         O  0.98442138  0.46220532  0.84400963    -2.28520
O46         O  0.98654908  0.56294356  0.72226050    -0.73110
H47         H  0.89471425  0.58825257  0.78120165     0.78880
H48         H  0.98452241  0.44141399  0.69660887     0.79990
H49         H  0.07987838  0.57900703  0.78245208     0.82200
H50         H  0.98213595  0.44072099  0.86762043     0.79800
H51         H  0.94610203  0.52032603  0.63848696     0.42840
H52         H  0.03298099  0.53571750  0.63888132     0.41810
H53         H  0.13886377  0.48130011  0.74837355     0.41490
H54         H  0.14235886  0.52588665  0.82538065     0.39420
H55         H  0.02109852  0.53138887  0.92479329     0.42550
H56         H  0.93103526  0.47472704  0.92202900     0.37340
H57         H  0.82955609  0.51251468  0.82053755     0.43450
H58         H  0.83151672  0.54637461  0.74142004     0.39870
H59         H  0.14195272  0.50294747  0.86935469     0.44790
H60         H  0.88363306  0.50050813  0.92020904     0.43510
H61         H  0.82709587  0.51183534  0.70198950     0.43650
H62         H  0.08330417  0.51884589  0.64108135     0.44000
C63         C  0.71986632  0.34668351  0.89085395     0.03550
C64         C  0.70462002  0.29712876  0.88468247    -0.12600
C65         C  0.65981719  0.28587302  0.88806268     0.01050
C66         C  0.62932818  0.32414878  0.89952243    -0.11120
C67         C  0.64366185  0.37446429  0.90837641     0.03550
C68         C  0.68971232  0.38556263  0.90392202    -0.10540
H69         H  0.72747825  0.26751671  0.87418834     0.09140
H70         H  0.59436364  0.31448112  0.90112585     0.06670
H71         H  0.70158101  0.42414439  0.90882863     0.06520
O72         O  0.56875084  0.08224297  0.83442685    -0.74870
O73         O  0.61733628  0.07479992  0.78353725    -0.53780
C74         C  0.60375819  0.09657060  0.81638469     0.78860
O75         O  0.42422134  0.90117257  0.81184816    -0.59470
O76         O  0.36797246  0.95174671  0.78718103    -0.52500
C77         C  0.38318530  0.91121284  0.80460656     0.70870
O78         O  0.56917241  0.91527693  0.82668601    -0.74030
O79         O  0.62087789  0.95176800  0.78635592    -0.54590
C80         C  0.60897152  0.92108666  0.81443388     0.76880
O81         O  0.42098184  0.10055364  0.83329010    -0.59170
O82         O  0.37044322  0.08109063  0.78331067    -0.52290
C83         C  0.38403853  0.10782872  0.81418228     0.73470
Zr84       Zr  0.49422198  0.08868400  0.80528032     2.54710
O85         O  0.49619812  0.12305532  0.87482273    -0.79740
O86         O  0.49933206  0.18070582  0.79649233    -0.93150
Zr87       Zr  0.49523455  0.93883840  0.80534831     2.64680
O88         O  0.48706453  0.94811445  0.87904542    -0.98110
O89         O  0.50365124  0.84707856  0.81435005    -0.80170
O90         O  0.53842777  0.01322339  0.80733796    -0.83530
O91         O  0.45060056  0.01343127  0.80839688    -2.18240
O92         O  0.41410629  0.10524890  0.65852609    -0.66920
O93         O  0.36574553  0.06250495  0.69854879    -0.51480
C94         C  0.37456460  0.09181119  0.66874832     0.71850
O95         O  0.56461016  0.91991412  0.65463110    -0.59820
O96         O  0.61614778  0.95889152  0.69621061    -0.51800
C97         C  0.60505882  0.93181617  0.66472834     0.73660
O98         O  0.41125271  0.91396154  0.66237570    -0.71220
O99         O  0.36329867  0.95999413  0.70226721    -0.49900
C100        C  0.37158269  0.92727412  0.67389550     0.75040
O101        O  0.56680090  0.10442049  0.65863570    -0.66550
O102        O  0.61659934  0.06087658  0.69830501    -0.53750
C103        C  0.60703331  0.09165251  0.66933683     0.73420
Zr104      Zr  0.49083223  0.08632534  0.68257399     2.77540
O105        O  0.49133788  0.08691029  0.60815093    -0.97300
O106        O  0.49037075  0.17926187  0.68623729    -0.78120
Zr107      Zr  0.48975464  0.93373985  0.68308738     2.70070
O108        O  0.48365348  0.92261447  0.60923132    -0.79370
O109        O  0.49399016  0.84172143  0.69262517    -0.98450
Zr110      Zr  0.57669017  0.01031531  0.74461929     2.21500
Zr111      Zr  0.40814826  0.01286838  0.74630528     2.11130
O112        O  0.44790876  0.01063710  0.68356065    -2.47140
O113        O  0.53287191  0.00931011  0.68303178    -0.79160
O114        O  0.44989007  0.08978826  0.74438634    -0.71360
O115        O  0.53514115  0.93350833  0.74367482    -2.32310
O116        O  0.53487482  0.08851891  0.74362333    -2.28520
O117        O  0.45041936  0.93592706  0.74505557    -0.73110
H118        H  0.43190370  0.01152983  0.83204350     0.78880
H119        H  0.55455650  0.90384399  0.74344665     0.79970
H120        H  0.42805697  0.00981691  0.66001698     0.82200
H121        H  0.55423814  0.11767988  0.74301945     0.79800
H122        H  0.50568904  0.83297013  0.78618721     0.42840
H123        H  0.46694687  0.82827609  0.67856856     0.41810
H124        H  0.48464779  0.95779680  0.59858980     0.41490
H125        H  0.46770426  0.06272940  0.59942204     0.39420
H126        H  0.46391114  0.18814748  0.70262737     0.42550
H127        H  0.50732268  0.18550395  0.76764609     0.37340
H128        H  0.49577571  0.09253940  0.89234521     0.43450
H129        H  0.45495950  0.94274199  0.88384220     0.39870
H130        H  0.47939893  0.12100513  0.60073621     0.44790
H131        H  0.52631764  0.19075469  0.81239808     0.43510
H132        H  0.50196947  0.91738982  0.89040278     0.43650
H133        H  0.51892097  0.83011497  0.67526252     0.44000
C134        C  0.25906924  0.67984470  0.89792806     0.03550
C135        C  0.27251180  0.72844003  0.88726451    -0.12600
C136        C  0.31737733  0.74004284  0.88490147     0.01050
C137        C  0.34990882  0.70319643  0.89530366    -0.11120
C138        C  0.33781254  0.65382711  0.90719779     0.03550
C139        C  0.29160341  0.64212704  0.90802041    -0.10540
H140        H  0.24773254  0.75607083  0.87685620     0.09140
H141        H  0.38479072  0.71300319  0.89303381     0.06670
H142        H  0.28102814  0.60389800  0.91519269     0.06520
C143        C  0.72363079  0.67292409  0.89032167     0.03550
C144        C  0.69152074  0.63752226  0.90374304    -0.12600
C145        C  0.64562881  0.65212649  0.90670296     0.01050
C146        C  0.63339645  0.70258235  0.89618861    -0.11120
C147        C  0.66557781  0.73729466  0.88350024     0.03550
C148        C  0.71011830  0.72279342  0.88203192    -0.10540
H149        H  0.70188400  0.59872702  0.91031710     0.09140
H150        H  0.59877130  0.71471694  0.89674552     0.06670
H151        H  0.73431174  0.74999592  0.87147383     0.06520
C152        C  0.26191164  0.36466227  0.87882451     0.03550
C153        C  0.27636236  0.31588117  0.86738534    -0.12600
C154        C  0.32102964  0.30191290  0.87085047     0.01050
C155        C  0.35211328  0.33674644  0.88701090    -0.11120
C156        C  0.33909883  0.38650046  0.89897631     0.03550
C157        C  0.29314245  0.40020951  0.89534231    -0.10540
H158        H  0.25265244  0.28897544  0.85415989     0.09140
H159        H  0.38672179  0.32483196  0.88982402     0.06670
H160        H  0.28200975  0.43822485  0.90408590     0.06520
C161        C  0.20632342  0.15565678  0.60005755     0.03550
C162        C  0.18960217  0.19906546  0.62078703    -0.12600
C163        C  0.14417981  0.21170079  0.61822076     0.01050
C164        C  0.11594857  0.18126719  0.59392565    -0.11120
C165        C  0.13206308  0.13829818  0.57226396     0.03550
C166        C  0.17773916  0.12672510  0.57433598    -0.10540
H167        H  0.21142856  0.22142330  0.64065400     0.09140
H168        H  0.08068948  0.19062197  0.59304538     0.06670
H169        H  0.19056453  0.09333294  0.55832310     0.06520
C170        C  0.20552440  0.85754699  0.59979219     0.03550
C171        C  0.18689496  0.81269468  0.61533051    -0.12600
C172        C  0.14149769  0.80253752  0.61019716     0.01050
C173        C  0.11541200  0.83482657  0.58589083    -0.11120
C174        C  0.13279892  0.88004321  0.56980017     0.03550
C175        C  0.17824035  0.89115880  0.57667889    -0.10540
H176        H  0.20706897  0.78782674  0.63454932     0.09140
H177        H  0.08047971  0.82564546  0.58151447     0.06670
H178        H  0.19154672  0.92698756  0.56641939     0.06520
C179        C  0.76646957  0.16372492  0.59260841     0.03550
C180        C  0.78361597  0.20783315  0.61169867    -0.12600
C181        C  0.82719080  0.22315100  0.60446195     0.01050
C182        C  0.85334696  0.19461790  0.57737836    -0.11120
C183        C  0.83739455  0.14887734  0.55914545     0.03550
C184        C  0.79300889  0.13477267  0.56561555    -0.10540
H185        H  0.76414073  0.22812667  0.63445737     0.09140
H186        H  0.88759874  0.20611609  0.57339035     0.06670
H187        H  0.78067078  0.09875446  0.55345234     0.06520
C188        C  0.76866553  0.86423940  0.59248907     0.03550
C189        C  0.78716890  0.82289778  0.61407210    -0.12600
C190        C  0.83176087  0.80853147  0.60872267     0.01050
C191        C  0.85706646  0.83422259  0.58026086    -0.11120
C192        C  0.84012620  0.87791499  0.56033408     0.03550
C193        C  0.79513416  0.89124485  0.56516513    -0.10540
H194        H  0.76760867  0.80373550  0.63668891     0.09140
H195        H  0.89126612  0.82188939  0.57590701     0.06670
H196        H  0.78142051  0.92429492  0.54971508     0.06520
O197        O  0.56966805  0.41037975  0.05455974    -0.74870
O198        O  0.62281465  0.45839854  0.02502407    -0.53780
C199        C  0.61059856  0.42063260  0.04700572     0.78860
O200        O  0.41545262  0.41123827  0.90700532    -0.59470
O201        O  0.36237364  0.46003143  0.93826570    -0.52500
C202        C  0.37430244  0.42205786  0.91543264     0.70870
O203        O  0.56816910  0.40381678  0.91340443    -0.74030
O204        O  0.62277865  0.45412284  0.94119625    -0.54590
C205        C  0.60964392  0.41376522  0.92150812     0.76880
O206        O  0.42131433  0.41047220  0.05622962    -0.59170
O207        O  0.36745650  0.45847053  0.02450260    -0.52290
C208        C  0.38025056  0.42112422  0.04736928     0.73470
Zr209      Zr  0.49493589  0.44536547  0.04262402     2.54710
O210        O  0.49614067  0.35448467  0.05740142    -0.79740
O211        O  0.49655027  0.46432217  0.11569892    -0.93150
Zr212      Zr  0.49271918  0.44138837  0.92024315     2.64680
O213        O  0.49295472  0.34947076  0.90712213    -0.98110
O214        O  0.49478199  0.45313363  0.84664543    -0.80170
O215        O  0.53624883  0.44230941  0.98155509    -0.83530
O216        O  0.45149818  0.44172740  0.98133342    -2.18240
O217        O  0.41756350  0.62750132  0.05577669    -0.66920
O218        O  0.36574831  0.57594425  0.02476776    -0.51480
C219        C  0.37686161  0.61455124  0.04735499     0.71850
O220        O  0.56859427  0.62755721  0.91283500    -0.59820
O221        O  0.62279471  0.57561946  0.93971169    -0.51800
C222        C  0.61017310  0.61585626  0.92031368     0.73660
O223        O  0.41466810  0.62607434  0.90966689    -0.71220
O224        O  0.36250980  0.57781042  0.94081362    -0.49900
C225        C  0.37377624  0.61628493  0.91935060     0.75040
O226        O  0.56820914  0.63247783  0.05054934    -0.66550
O227        O  0.62124932  0.58045570  0.02245380    -0.53750
C228        C  0.60908785  0.62075235  0.04267122     0.73420
Zr229      Zr  0.49375953  0.59542087  0.04155764     2.77540
O230        O  0.49373040  0.68804135  0.05061011    -0.97300
O231        O  0.49841457  0.58488617  0.11531140    -0.78120
Zr232      Zr  0.49213068  0.59186374  0.91945425     2.70070
O233        O  0.49057139  0.68142152  0.90042470    -0.79370
O234        O  0.49266329  0.57245321  0.84649557    -0.98450
Zr235      Zr  0.58061842  0.51732191  0.98121502     2.21500
Zr236      Zr  0.40688060  0.51778956  0.98098741     2.11130
O237        O  0.45045353  0.59411363  0.98053547    -2.47140
O238        O  0.53562578  0.59319720  0.98064891    -0.79160
O239        O  0.44964307  0.52030982  0.04341322    -0.71360
O240        O  0.53722481  0.51627084  0.91870861    -2.32310
O241        O  0.53930793  0.52023356  0.04336053    -2.28520
O242        O  0.44773291  0.51675357  0.91859821    -0.73110
H243        H  0.43349395  0.41137976  0.98137649     0.78880
H244        H  0.55637916  0.51551767  0.89527350     0.79970
H245        H  0.43208292  0.62452799  0.98118889     0.82200
H246        H  0.55916407  0.52096127  0.06695359     0.79800
H247        H  0.52470564  0.44052836  0.83880883     0.42840
H248        H  0.46093228  0.57466655  0.83774360     0.41810
H249        H  0.48826413  0.70033138  0.92675249     0.41490
H250        H  0.47152660  0.70092488  0.03039163     0.39420
H251        H  0.46746076  0.57756001  0.12328672     0.42550
H252        H  0.52810733  0.45915427  0.12419818     0.37340
H253        H  0.49688203  0.33746928  0.03018142     0.43450
H254        H  0.47255650  0.33536305  0.92748134     0.39870
H255        H  0.48010912  0.69458435  0.07755226     0.44790
H256        H  0.48062555  0.43550600  0.12794681     0.43510
H257        H  0.47719284  0.34486999  0.88047842     0.43650
H258        H  0.50663101  0.60260787  0.83426396     0.44000
C259        C  0.26199877  0.65518849  0.08393655     0.03550
C260        C  0.29753019  0.62509563  0.06953956    -0.12600
C261        C  0.33982233  0.64670268  0.06365239     0.01050
C262        C  0.34603237  0.69893641  0.07328145    -0.11120
C263        C  0.31021992  0.72930540  0.08736093     0.03550
C264        C  0.26833729  0.70727432  0.09164565    -0.10540
H265        H  0.29274092  0.58441560  0.06492831     0.09140
H266        H  0.37860560  0.71589606  0.07027387     0.06670
H267        H  0.24132743  0.72992846  0.10437376     0.06520
C268        C  0.72319148  0.36529635  0.08405684     0.03550
C269        C  0.69110286  0.39716198  0.06434140    -0.12600
C270        C  0.64527059  0.38565126  0.06493054     0.01050
C271        C  0.63217150  0.33950415  0.08262560    -0.11120
C272        C  0.66377990  0.30508111  0.09886450     0.03550
C273        C  0.70828364  0.32006472  0.10189831    -0.10540
H274        H  0.70121127  0.43145450  0.04921056     0.09140
H275        H  0.59725012  0.32937880  0.08283476     0.06670
H276        H  0.73128986  0.29580511  0.11845804     0.06520
C277        C  0.72181800  0.67158675  0.07966004     0.03550
C278        C  0.68902396  0.63952947  0.06206117    -0.12600
C279        C  0.64446179  0.65633387  0.05797827     0.01050
C280        C  0.63355245  0.70635238  0.07131412    -0.11120
C281        C  0.66647468  0.73872414  0.08834864     0.03550
C282        C  0.71058970  0.72158701  0.09130219    -0.10540
H283        H  0.69772874  0.60025719  0.05457888     0.09140
H284        H  0.59922906  0.71962853  0.07008876     0.06670
H285        H  0.73515926  0.74516831  0.10711470     0.06520
O286        O  0.41022569  0.90892632  0.14968914    -0.74870
O287        O  0.35455747  0.95161438  0.18267514    -0.53780
C288        C  0.36923081  0.91578668  0.15872095     0.78860
O289        O  0.56012488  0.92744763  0.31041989    -0.59470
O290        O  0.60984224  0.96746486  0.27013907    -0.52500
C291        C  0.60004183  0.93902760  0.30022383     0.70870
O292        O  0.41035161  0.92384622  0.31131079    -0.74030
O293        O  0.35628280  0.96715540  0.27520288    -0.54590
C294        C  0.36958980  0.93744373  0.30405276     0.76880
O295        O  0.55556733  0.91423183  0.14767580    -0.59170
O296        O  0.60960048  0.95674271  0.18419024    -0.52290
C297        C  0.59606497  0.92102020  0.15944495     0.73470
Zr298      Zr  0.48213564  0.94586583  0.16283345     2.54710
O299        O  0.48556963  0.85446036  0.14829806    -0.79740
O300        O  0.47907846  0.96153602  0.08967359    -0.93150
Zr301      Zr  0.48413291  0.94169774  0.28412094     2.64680
O302        O  0.48424078  0.84967383  0.27203618    -0.98110
O303        O  0.48655419  0.93025011  0.35782673    -0.80170
O304        O  0.43981671  0.94061141  0.22324671    -0.83530
O305        O  0.52614230  0.94347291  0.22369818    -2.18240
O306        O  0.55036207  0.12923180  0.15571227    -0.66920
O307        O  0.60774148  0.08276109  0.18294931    -0.51480
C308        C  0.59195047  0.12040723  0.16187388     0.71850
O309        O  0.40611315  0.11244950  0.31138733    -0.59820
O310        O  0.35519823  0.06919260  0.27195636    -0.51800
C311        C  0.36594401  0.09975621  0.30154297     0.73660
O312        O  0.55513854  0.10787406  0.31745731    -0.71220
O313        O  0.60741313  0.06771334  0.27805667    -0.49900
C314        C  0.59543022  0.09539075  0.30885264     0.75040
O315        O  0.41045954  0.13704260  0.18748742    -0.66550
O316        O  0.35598224  0.07937478  0.18100590    -0.53750
C317        C  0.37154524  0.12431739  0.17504793     0.73420
Zr318      Zr  0.47806034  0.09438980  0.16742204     2.77540
O319        O  0.47104993  0.17845866  0.13654924    -0.97300
O320        O  0.46055943  0.07925929  0.09529837    -0.78120
Zr321      Zr  0.48130536  0.09261231  0.28810264     2.70070
O322        O  0.48274427  0.18523040  0.28263746    -0.79370
O323        O  0.47677973  0.09461436  0.36240628    -0.98450
Zr324      Zr  0.39462561  0.01592483  0.22439507     2.21500
Zr325      Zr  0.56807052  0.02061708  0.22438175     2.11130
O326        O  0.52382144  0.09686413  0.22767146    -2.47140
O327        O  0.43667889  0.09256205  0.22806260    -0.79160
O328        O  0.52495056  0.02134930  0.16262593    -0.71360
O329        O  0.43995835  0.01656421  0.28545082    -2.32310
O330        O  0.43519656  0.01887247  0.16244683    -2.28520
O331        O  0.52596658  0.01795288  0.28559769    -0.73110
H332        H  0.54541001  0.91374757  0.22403019     0.78880
H333        H  0.42233093  0.01683870  0.30975493     0.79970
H334        H  0.54193341  0.12713039  0.22978550     0.82200
H335        H  0.41517424  0.01875068  0.13897603     0.79800
H336        H  0.48294115  0.96522421  0.36931530     0.42840
H337        H  0.49817557  0.06807309  0.37184948     0.41810
H338        H  0.46062102  0.19304246  0.26071475     0.41490
H339        H  0.48603366  0.20213036  0.15616567     0.39420
H340        H  0.49002274  0.07702940  0.08218714     0.42550
H341        H  0.44733277  0.95699803  0.08172152     0.37340
H342        H  0.49121057  0.83878961  0.17529616     0.43450
H343        H  0.51315481  0.84188180  0.25913116     0.39870
H344        H  0.49044659  0.17748619  0.11237425     0.44790
H345        H  0.49452393  0.93166425  0.07731078     0.43510
H346        H  0.48704024  0.83492308  0.29967207     0.43650
H347        H  0.49038726  0.12743023  0.37109509     0.44000
O348        O  0.06840459  0.60187615  0.16033212    -0.74870
O349        O  0.11818703  0.55893946  0.20066762    -0.53780
C350        C  0.10832534  0.58807548  0.17070322     0.78860
O351        O  0.91757098  0.61357561  0.32242809    -0.59470
O352        O  0.86484823  0.57122085  0.28418550    -0.52500
C353        C  0.87722425  0.60522328  0.31107308     0.70870
O354        O  0.06130415  0.61195711  0.33632586    -0.74030
O355        O  0.11840315  0.57394974  0.30279230    -0.54590
C356        C  0.10293000  0.60427808  0.33074117     0.76880
O357        O  0.91606407  0.61119292  0.16154730    -0.59170
O358        O  0.86740582  0.56250671  0.19603675    -0.52290
C359        C  0.87612844  0.59589764  0.16936880     0.73470
Zr360      Zr  0.99264778  0.58839398  0.18566109     2.54710
O361        O  0.98651051  0.68106187  0.19035086    -0.79740
O362        O  0.99810322  0.56941169  0.11270574    -0.93150
Zr363      Zr  0.99179619  0.58920039  0.30446012     2.64680
O364        O  0.99546185  0.68085915  0.29331054    -0.98110
O365        O  0.98316048  0.60465930  0.37743444    -0.80170
O366        O  0.03919620  0.59358748  0.24649303    -0.83530
O367        O  0.94737199  0.59011952  0.24368471    -2.18240
O368        O  0.92555924  0.41634424  0.15371398    -0.66920
O369        O  0.87188026  0.46229172  0.18720275    -0.51480
C370        C  0.88505516  0.43162926  0.15861174     0.71850
O371        O  0.06582164  0.39448356  0.30132269    -0.59820
O372        O  0.11782857  0.45618768  0.30111169    -0.51800
C373        C  0.10412992  0.41179476  0.31128704     0.73660
O374        O  0.92222076  0.40865570  0.31971545    -0.71220
O375        O  0.86741662  0.44866294  0.28252034    -0.49900
C376        C  0.88148237  0.41572703  0.30888585     0.75040
O377        O  0.07240280  0.43380458  0.15654640    -0.66550
O378        O  0.12193447  0.47252354  0.20033546    -0.53750
C379        C  0.11195883  0.44706651  0.16769073     0.73420
Zr380      Zr  0.99768036  0.43833895  0.18479398     2.77540
O381        O  0.99787594  0.34555471  0.18958892    -0.97300
O382        O  0.01210411  0.45311070  0.11301738    -0.78120
Zr383      Zr  0.99536623  0.43780687  0.30372394     2.70070
O384        O  0.99043997  0.34967810  0.32593025    -0.79370
O385        O  0.00683833  0.45083958  0.37704756    -0.98450
Zr386      Zr  0.08075899  0.51536150  0.25375067     2.21500
Zr387      Zr  0.90836028  0.51030767  0.24225285     2.11130
O388        O  0.95153027  0.43261807  0.24230147    -2.47140
O389        O  0.04307382  0.43537477  0.24550115    -0.79160
O390        O  0.95110365  0.51179526  0.18027269    -0.71360
O391        O  0.03663529  0.51432380  0.31264000    -2.32310
O392        O  0.01029307  0.51396886  0.22235113    -2.28520
O393        O  0.94979554  0.51242619  0.30508722    -0.73110
H394        H  0.92779519  0.61953961  0.24293575     0.78880
H395        H  0.05420600  0.51433673  0.33767738     0.79970
H396        H  0.93342403  0.40231324  0.24054534     0.82200
H397        H  0.99068463  0.51319979  0.24524619     0.79800
H398        H  0.99399835  0.57278752  0.39034509     0.42840
H399        H  0.98132513  0.47259717  0.38544986     0.41810
H400        H  0.98650710  0.32951333  0.30028813     0.41490
H401        H  0.96617747  0.33618001  0.19231590     0.39420
H402        H  0.98241922  0.46016328  0.10049142     0.42550
H403        H  0.02631461  0.55026120  0.10909582     0.37340
H404        H  0.01578257  0.69209660  0.20164175     0.43450
H405        H  0.96486440  0.69100157  0.28468737     0.39870
H406        H  0.00581516  0.33333324  0.16185174     0.44790
H407        H  0.00321468  0.60289116  0.09997347     0.43510
H408        H  0.99928571  0.69602177  0.32104529     0.43650
H409        H  0.00090774  0.41720387  0.38917199     0.44000
C410        C  0.27007485  0.37238081  0.08736841     0.03550
C411        C  0.30242568  0.40524874  0.07190404    -0.12600
C412        C  0.34567042  0.38669355  0.06349872     0.01050
C413        C  0.35627082  0.33518049  0.07235017    -0.11120
C414        C  0.32317882  0.30189185  0.08567644     0.03550
C415        C  0.27972341  0.32010671  0.08998617    -0.10540
H416        H  0.29492898  0.44560852  0.06891654     0.09140
H417        H  0.39020145  0.32112801  0.06964649     0.06670
H418        H  0.25457597  0.29433305  0.10079368     0.06520
C419        C  0.21363169  0.16112538  0.39399597     0.03550
C420        C  0.20477407  0.21298896  0.38967807    -0.12600
C421        C  0.16101332  0.23162148  0.39052134     0.01050
C422        C  0.12631210  0.19785089  0.40001350    -0.11120
C423        C  0.13591819  0.14610359  0.40880647     0.03550
C424        C  0.18002512  0.12828700  0.40591457    -0.10540
H425        H  0.23150907  0.23777366  0.38056861     0.09140
H426        H  0.09211022  0.21151763  0.39979769     0.06670
H427        H  0.18756213  0.08791141  0.40895237     0.06520
C428        C  0.75946418  0.16997512  0.37965605     0.03550
C429        C  0.77241369  0.22126948  0.37732485    -0.12600
C430        C  0.81729418  0.23438058  0.37816393     0.01050
C431        C  0.84944766  0.19821893  0.39026964    -0.11120
C432        C  0.83690710  0.14776924  0.39890779     0.03550
C433        C  0.79211228  0.13351607  0.39194610    -0.10540
H434        H  0.74813926  0.25122672  0.37176564     0.09140
H435        H  0.88415893  0.20928496  0.39199310     0.06670
H436        H  0.78348833  0.09370315  0.39461782     0.06520
C437        C  0.21611924  0.86038817  0.38555446     0.03550
C438        C  0.21068694  0.80798492  0.39184704    -0.12600
C439        C  0.16823909  0.78740881  0.39719238     0.01050
C440        C  0.13201814  0.82148651  0.40315058    -0.11120
C441        C  0.13852170  0.87474902  0.40419534     0.03550
C442        C  0.18040385  0.89390817  0.39396327    -0.10540
H443        H  0.23931687  0.78275042  0.38919815     0.09140
H444        H  0.09880041  0.80681314  0.40718254     0.06670
H445        H  0.18451910  0.93475854  0.39110025     0.06520
C446        C  0.75790848  0.86142867  0.38140186     0.03550
C447        C  0.76652409  0.81009369  0.37191690    -0.12600
C448        C  0.80874369  0.78866494  0.37888196     0.01050
C449        C  0.84331548  0.81967028  0.39489981    -0.11120
C450        C  0.83480278  0.87126171  0.40551885     0.03550
C451        C  0.79126102  0.89074772  0.40055217    -0.10540
H452        H  0.74094242  0.78719339  0.35691452     0.09140
H453        H  0.87669395  0.80390511  0.39824668     0.06670
H454        H  0.78393996  0.93018710  0.40862366     0.06520
O455        O  0.05853560  0.11489180  0.55712922    -0.74870
O456        O  0.11355063  0.06865217  0.52646704    -0.53780
C457        C  0.09971045  0.10483228  0.55037082     0.78860
O458        O  0.91316345  0.90223764  0.54767452    -0.59470
O459        O  0.85778983  0.95137529  0.51989312    -0.52500
C460        C  0.87191679  0.91263064  0.54064057     0.70870
O461        O  0.05976170  0.90874950  0.55757173    -0.74030
O462        O  0.11488887  0.95093709  0.52565780    -0.54590
C463        C  0.10098776  0.91610369  0.54972332     0.76880
O464        O  0.91103217  0.12332920  0.54750719    -0.59170
O465        O  0.85649439  0.07407051  0.51867673    -0.52290
C466        C  0.86994125  0.11312265  0.53995885     0.73470
Zr467      Zr  0.98439450  0.08739590  0.53824414     2.54710
O468        O  0.97954501  0.08083051  0.61217407    -0.79740
O469        O  0.98517523  0.18039570  0.54343794    -0.93150
Zr470      Zr  0.98551163  0.93961558  0.54107616     2.64680
O471        O  0.98088326  0.95916240  0.61385975    -0.98110
O472        O  0.98815184  0.84967422  0.55894180    -0.80170
O473        O  0.03009362  0.01332263  0.54237510    -0.83530
O474        O  0.93973801  0.01373771  0.54060941    -2.18240
O475        O  0.91218230  0.12066969  0.40764742    -0.66920
O476        O  0.85772786  0.07096674  0.43350947    -0.51480
C477        C  0.87095117  0.11035735  0.41399226     0.71850
O478        O  0.06162176  0.89750359  0.40888562    -0.59820
O479        O  0.11389367  0.94979598  0.43859247    -0.51800
C480        C  0.10232545  0.90999895  0.41745390     0.73660
O481        O  0.91175141  0.89304330  0.41344652    -0.71220
O482        O  0.85866256  0.94837832  0.43709179    -0.49900
C483        C  0.87082498  0.90623668  0.41970461     0.75040
O484        O  0.05992309  0.12054410  0.40932859    -0.66550
O485        O  0.11261826  0.07094168  0.44122849    -0.53750
C486        C  0.10054258  0.11001426  0.42005332     0.73420
Zr487      Zr  0.98623837  0.08181657  0.41662289     2.77540
O488        O  0.98643933  0.05768744  0.34452923    -0.97300
O489        O  0.98599416  0.16909395  0.39188034    -0.78120
Zr490      Zr  0.98604984  0.93223562  0.41951718     2.70070
O491        O  0.98077026  0.94418114  0.34594943    -0.79370
O492        O  0.99221887  0.84070929  0.40547285    -0.98450
Zr493      Zr  0.07265144  0.00964076  0.48140247     2.21500
Zr494      Zr  0.89834336  0.01145745  0.47757713     2.11130
O495        O  0.94095139  0.00760348  0.41597629    -2.47140
O496        O  0.03136766  0.00658654  0.41786384    -0.79160
O497        O  0.94273047  0.08622564  0.47632822    -0.71360
O498        O  0.02839544  0.93423386  0.48139808    -2.32310
O499        O  0.02774173  0.08551343  0.47899375    -2.28520
O500        O  0.94319635  0.93575165  0.47955201    -0.73110
H501        H  0.92022745  0.01492302  0.56378700     0.78880
H502        H  0.04655882  0.90365813  0.48264244     0.79970
H503        H  0.92152128  0.00670321  0.39209029     0.82200
H504        H  0.04541346  0.11607497  0.48053752     0.79800
H505        H  0.99244412  0.83141066  0.53256197     0.42840
H506        H  0.97589059  0.82423165  0.42769776     0.41810
H507        H  0.01213157  0.94413413  0.33700142     0.41490
H508        H  0.95856617  0.07282251  0.33317044     0.39420
H509        H  0.98611058  0.19070596  0.41698883     0.42550
H510        H  0.00992350  0.19113712  0.52597537     0.37340
H511        H  0.00935858  0.06831691  0.62113556     0.43450
H512        H  0.94915123  0.95398666  0.62037102     0.39870
H513        H  0.01052215  0.07829976  0.33292619     0.44790
H514        H  0.99549808  0.18813420  0.57176015     0.43510
H515        H  0.99685541  0.93049537  0.62728319     0.43650
H516        H  0.97379294  0.83448409  0.38050018     0.44000
C517        C  0.20135800  0.42811785  0.08673535    -0.11840
C518        C  0.22886400  0.39239719  0.10679662     0.05160
C519        C  0.21657355  0.37518692  0.14574363    -0.07130
C520        C  0.17698931  0.39207071  0.16290636    -0.07870
C521        C  0.14971073  0.42809765  0.14350351    -0.02430
C522        C  0.16179009  0.44694536  0.10464472     0.04390
N523        N  0.13576820  0.48529821  0.08335957     0.66900
H524        H  0.21089466  0.44120705  0.05691432     0.15800
H525        H  0.16824807  0.37830148  0.19276244     0.15510
N526        N  0.24550089  0.34328757  0.16972610     0.74600
O527        O  0.15030245  0.50502998  0.05127565    -0.38850
O528        O  0.09791264  0.49918740  0.09564465    -0.38790
O529        O  0.28135076  0.36121191  0.18442685    -0.39500
O530        O  0.23251453  0.29997984  0.18078841    -0.39560
C531        C  0.11324034  0.65741350  0.39337476    -0.11840
C532        C  0.13247776  0.63617536  0.35781709     0.05160
C533        C  0.17289882  0.65691166  0.34460993    -0.07130
C534        C  0.18533337  0.70543948  0.35958125    -0.07870
C535        C  0.16114953  0.73126240  0.39035398    -0.02430
C536        C  0.12772118  0.70403850  0.41043247     0.04390
N537        N  0.10784699  0.72330004  0.44738892     0.66900
H538        H  0.08466414  0.63907779  0.40642437     0.15800
H539        H  0.21319072  0.72372735  0.34571764     0.15510
N540        N  0.20159473  0.62989708  0.31673135     0.74600
O541        O  0.06877440  0.71064245  0.45649422    -0.38850
O542        O  0.13083777  0.74864851  0.47310795    -0.38790
O543        O  0.23115738  0.65381363  0.29798768    -0.39500
O544        O  0.20439993  0.58178945  0.31790398    -0.39560
C545        C  0.80760004  0.72367041  0.32317459    -0.11840
C546        C  0.81731653  0.73563203  0.36435262     0.05160
C547        C  0.83702405  0.69803421  0.38956494    -0.07130
C548        C  0.85041481  0.65133130  0.37174148    -0.07870
C549        C  0.84529209  0.64162534  0.32946482    -0.02430
C550        C  0.82190659  0.67762513  0.30523100     0.04390
N551        N  0.81726472  0.67159704  0.26172975     0.66900
H552        H  0.79234415  0.75241959  0.30377154     0.15800
H553        H  0.86821125  0.62367240  0.39040000     0.15510
N554        N  0.84471805  0.70699445  0.43266804     0.74600
O555        O  0.78101407  0.68421217  0.24423508    -0.38850
O556        O  0.85155862  0.66568541  0.24039284    -0.38790
O557        O  0.81797328  0.73426700  0.45309022    -0.39500
O558        O  0.87603366  0.68395928  0.45126103    -0.39560
C559        C  0.83653982  0.32621727  0.38525374    -0.11840
C560        C  0.83015066  0.28326119  0.35984399     0.05160
C561        C  0.83266342  0.28829364  0.31679094    -0.07130
C562        C  0.84143238  0.33641916  0.30062066    -0.07870
C563        C  0.85112486  0.37841642  0.32602237    -0.02430
C564        C  0.84789717  0.37374607  0.36894403     0.04390
N565        N  0.85796802  0.41613144  0.39613310     0.66900
H566        H  0.83357151  0.32225394  0.41801032     0.15800
H567        H  0.84621841  0.33971076  0.26798647     0.15510
N568        N  0.82929459  0.24499433  0.28907925     0.74600
O569        O  0.86739426  0.40857448  0.43335025    -0.38850
O570        O  0.85536201  0.46151771  0.38367491    -0.38790
O571        O  0.81924424  0.25167868  0.25185866    -0.39500
O572        O  0.84098425  0.20082265  0.30022938    -0.39560
C573        C  0.17259500  0.29779088  0.33814856    -0.11840
C574        C  0.15214829  0.28386205  0.37480974     0.05160
C575        C  0.12310831  0.31904057  0.39410320    -0.07130
C576        C  0.11283270  0.36515384  0.37457471    -0.07870
C577        C  0.13115438  0.37736854  0.33673202    -0.02430
C578        C  0.16309107  0.34446043  0.31916890     0.04390
N579        N  0.18403377  0.35622967  0.28119229     0.66900
H580        H  0.19497971  0.27104711  0.32320808     0.15800
H581        H  0.08804709  0.39057356  0.38774584     0.15510
N582        N  0.10312700  0.30836672  0.43268305     0.74600
O583        O  0.20227182  0.32122671  0.26027121    -0.38850
O584        O  0.18931485  0.40204293  0.27094178    -0.38790
O585        O  0.12517595  0.28560840  0.46028309    -0.39500
O586        O  0.06496475  0.32614128  0.44082964    -0.39560
C587        C  0.33879465  0.25684090  0.14916425    -0.11840
C588        C  0.33466197  0.25355795  0.10650263     0.05160
C589        C  0.33483490  0.20486462  0.08695610    -0.07130
C590        C  0.34101945  0.16097995  0.11122081    -0.07870
C591        C  0.34627391  0.16484082  0.15393837    -0.02430
C592        C  0.34342051  0.21336162  0.17318470     0.04390
N593        N  0.34668851  0.21900298  0.21703501     0.66900
H594        H  0.33781493  0.29403448  0.16395614     0.15800
H595        H  0.34517226  0.12391195  0.09653057     0.15510
N596        N  0.33039616  0.19910789  0.04312287     0.74600
O597        O  0.35873854  0.26084278  0.23325232    -0.38850
O598        O  0.33341387  0.18392256  0.23975775    -0.38790
O599        O  0.33768391  0.23598842  0.01980614    -0.39500
O600        O  0.32184230  0.15594374  0.02726738    -0.39560
C601        C  0.67784625  0.94836143  0.32425123    -0.11840
C602        C  0.63827986  0.92009991  0.32494708     0.05160
C603        C  0.63716449  0.87501533  0.34816467    -0.07130
C604        C  0.67579709  0.85917427  0.36934340    -0.07870
C605        C  0.71621588  0.88539133  0.36578597    -0.02430
C606        C  0.71694954  0.93095348  0.34312227     0.04390
N607        N  0.75745988  0.95795920  0.33594903     0.66900
H608        H  0.67919227  0.98340557  0.30708376     0.15800
H609        H  0.67502608  0.82413755  0.38654837     0.15510
N610        N  0.59880896  0.84264352  0.34791760     0.74600
O611        O  0.78988269  0.93510620  0.31943511    -0.38850
O612        O  0.75806437  0.00606181  0.33935637    -0.38790
O613        O  0.58255442  0.82661953  0.31430646    -0.39500
O614        O  0.58694971  0.82207543  0.38059634    -0.39560
C615        C  0.64700364  0.16422264  0.32230341    -0.11840
C616        C  0.63109164  0.11733247  0.33451042     0.05160
C617        C  0.65355216  0.09033945  0.36598655    -0.07130
C618        C  0.69393805  0.11017970  0.38201408    -0.07870
C619        C  0.71334377  0.15431725  0.36586008    -0.02430
C620        C  0.68859113  0.18155559  0.33542584     0.04390
N621        N  0.70687106  0.22283739  0.31321396     0.66900
H622        H  0.62892991  0.18524849  0.29888922     0.15800
H623        H  0.71066749  0.09033938  0.40675293     0.15510
N624        N  0.63625651  0.04345222  0.38191346     0.74600
O625        O  0.73978751  0.21438507  0.29063810    -0.38850
O626        O  0.68484877  0.26386188  0.30917098    -0.38790
O627        O  0.59612279  0.03104593  0.37556854    -0.39500
O628        O  0.66022071  0.01589263  0.40503315    -0.39560
C629        C  0.28548887  0.11528039  0.30892199    -0.11840
C630        C  0.32853355  0.11957193  0.32617596     0.05160
C631        C  0.33344521  0.13712770  0.36724067    -0.07130
C632        C  0.29526268  0.14725048  0.39025828    -0.07870
C633        C  0.25264430  0.14081244  0.37293071    -0.02430
C634        C  0.24779567  0.12555245  0.33166139     0.04390
N635        N  0.20484947  0.12306581  0.31167304     0.66900
H636        H  0.28072180  0.10321193  0.27732346     0.15800
H637        H  0.29880143  0.16181598  0.42132259     0.15510
N638        N  0.37635858  0.14531240  0.38601504     0.74600
O639        O  0.19810320  0.14639532  0.27859837    -0.38850
O640        O  0.17667373  0.09088132  0.32287372    -0.38790
O641        O  0.40073589  0.18048176  0.37318543    -0.39500
O642        O  0.38529958  0.12599302  0.42036483    -0.39560
C643        C  0.27664750  0.92530180  0.38028076    -0.11840
C644        C  0.25777547  0.87894828  0.36678685     0.05160
C645        C  0.27870694  0.85105574  0.33479325    -0.07130
C646        C  0.31824114  0.86893296  0.31863174    -0.07870
C647        C  0.33509220  0.91647319  0.33004820    -0.02430
C648        C  0.31470225  0.94510834  0.36178685     0.04390
N649        N  0.33191258  0.99368713  0.37570423     0.66900
H650        H  0.26152929  0.94630229  0.40528557     0.15800
H651        H  0.33429169  0.84738318  0.29454750     0.15510
N652        N  0.25832738  0.80729491  0.31557597     0.74600
O653        O  0.30719879  0.02465627  0.39496633    -0.38850
O654        O  0.37282651  0.00361046  0.37293674    -0.38790
O655        O  0.21882316  0.81041516  0.30175539    -0.39500
O656        O  0.28173828  0.76849533  0.30669721    -0.39560
C657        C  0.75736456  0.61426519  0.12835250    -0.11840
C658        C  0.76314747  0.64932687  0.09726856     0.05160
C659        C  0.80633310  0.66798006  0.08956703    -0.07130
C660        C  0.84262025  0.65099481  0.11412835    -0.07870
C661        C  0.83669687  0.61613262  0.14593780    -0.02430
C662        C  0.79283854  0.59782605  0.15283757     0.04390
N663        N  0.78308520  0.56164157  0.18388829     0.66900
H664        H  0.72416799  0.60090652  0.13499015     0.15800
H665        H  0.87581081  0.66442971  0.10790782     0.15510
N666        N  0.81400596  0.70309793  0.05690883     0.74600
O667        O  0.78301533  0.57580560  0.22091504    -0.38850
O668        O  0.76526269  0.51967965  0.17388328    -0.38790
O669        O  0.78747681  0.70548795  0.02656368    -0.39500
O670        O  0.84937071  0.72887294  0.05654443    -0.39560
C671        C  0.66899627  0.83377383  0.09589845    -0.11840
C672        C  0.65396139  0.78656181  0.11004255     0.05160
C673        C  0.62764901  0.78525696  0.14530314    -0.07130
C674        C  0.61424102  0.83128365  0.16356685    -0.07870
C675        C  0.62593129  0.87871113  0.14758948    -0.02430
C676        C  0.65507258  0.88043701  0.11410910     0.04390
N677        N  0.66947277  0.92823401  0.09749988     0.66900
H678        H  0.69046038  0.83402988  0.06963385     0.15800
H679        H  0.59199620  0.83020644  0.18932453     0.15510
N680        N  0.61335942  0.73783702  0.16238294     0.74600
O681        O  0.69071069  0.92875326  0.06453479    -0.38850
O682        O  0.66434028  0.96973464  0.11705340    -0.38790
O683        O  0.63978350  0.70010881  0.16468686    -0.39500
O684        O  0.57578745  0.73515237  0.17898854    -0.39560
C685        C  0.66843477  0.23326724  0.14906150    -0.11840
C686        C  0.65076997  0.25298817  0.11221037     0.05160
C687        C  0.62101196  0.22238397  0.08862692    -0.07130
C688        C  0.60660507  0.17609745  0.10433558    -0.07870
C689        C  0.62091274  0.15866147  0.14289412    -0.02430
C690        C  0.65427580  0.18631410  0.16453848     0.04390
N691        N  0.67312625  0.16901046  0.20259773     0.66900
H692        H  0.69167434  0.25580099  0.16731502     0.15800
H693        H  0.58212091  0.15421017  0.08688933     0.15510
N694        N  0.60470500  0.23753414  0.04893950     0.74600
O695        O  0.71386177  0.17639451  0.21082717    -0.38850
O696        O  0.64872875  0.15086541  0.22964196    -0.38790
O697        O  0.63058998  0.25745594  0.02386766    -0.39500
O698        O  0.56553803  0.22648452  0.03732237    -0.39560
C699        C  0.78185191  0.43318640  0.09222270    -0.11840
C700        C  0.77108078  0.38097058  0.09049483     0.05160
C701        C  0.80564881  0.34515086  0.10035998    -0.07130
C702        C  0.84356054  0.36212187  0.12236364    -0.07870
C703        C  0.85083040  0.41430388  0.12871077    -0.02430
C704        C  0.82319807  0.44973414  0.10789364     0.04390
N705        N  0.83766816  0.50109075  0.10021391     0.66900
H706        H  0.75808648  0.46178771  0.08224560     0.15800
H707        H  0.86749592  0.33473402  0.13445785     0.15510
N708        N  0.80346610  0.29245320  0.08729341     0.74600
O709        O  0.81264595  0.53101212  0.08011753    -0.38850
O710        O  0.87830388  0.51249562  0.10454869    -0.38790
O711        O  0.78442697  0.28057264  0.05378299    -0.39500
O712        O  0.82430648  0.25830587  0.10695571    -0.39560
C713        C  0.14349914  0.61300234  0.10478570    -0.11840
C714        C  0.14679313  0.60654789  0.14733219     0.05160
C715        C  0.18864649  0.61331929  0.16720910    -0.07130
C716        C  0.22598801  0.62456563  0.14453725    -0.07870
C717        C  0.22289049  0.63152038  0.10238686    -0.02430
C718        C  0.18134168  0.62508489  0.08179734     0.04390
N719        N  0.17719194  0.62955768  0.03808753     0.66900
H720        H  0.11170673  0.60692552  0.08932394     0.15800
H721        H  0.25749587  0.63131123  0.16044628     0.15510
N722        N  0.19338752  0.61205887  0.21083153     0.74600
O723        O  0.13949432  0.63764189  0.02147828    -0.38850
O724        O  0.20988895  0.61905446  0.01561416    -0.38790
O725        O  0.22687497  0.59031981  0.22708646    -0.39500
O726        O  0.16708595  0.63784397  0.23287158    -0.39560
C727        C  0.30842102  0.79245889  0.14417469    -0.11840
C728        C  0.31713082  0.78230366  0.10283444     0.05160
C729        C  0.33339794  0.82187414  0.07839029    -0.07130
C730        C  0.34403232  0.86903867  0.09719553    -0.07870
C731        C  0.33911947  0.87764463  0.13947243    -0.02430
C732        C  0.31913145  0.83948334  0.16289635     0.04390
N733        N  0.31295489  0.84570266  0.20612399     0.66900
H734        H  0.29496721  0.76234758  0.16257187     0.15800
H735        H  0.35942250  0.89837584  0.07931113     0.15510
N736        N  0.34016542  0.81476207  0.03512339     0.74600
O737        O  0.31331422  0.80695065  0.22864630    -0.38850
O738        O  0.30012649  0.88807026  0.22081188    -0.38790
O739        O  0.31905166  0.78098602  0.01505034    -0.39500
O740        O  0.36468293  0.84491570  0.01605949    -0.39560
C741        C  0.31409815  0.20735159  0.86827473    -0.11840
C742        C  0.33509890  0.25168161  0.85453831     0.05160
C743        C  0.36805504  0.24763094  0.82446302    -0.07130
C744        C  0.38051038  0.19933056  0.81018427    -0.07870
C745        C  0.36072482  0.15506306  0.82472410    -0.02430
C746        C  0.32649339  0.15852273  0.85365159     0.04390
N747        N  0.30486173  0.11374835  0.86883736     0.66900
H748        H  0.28827914  0.21105031  0.89088980     0.15800
H749        H  0.40676414  0.19607098  0.78789288     0.15510
N750        N  0.38896114  0.29183172  0.80790141     0.74600
O751        O  0.28146854  0.11677727  0.90050220    -0.38850
O752        O  0.30616737  0.07187056  0.84923557    -0.38790
O753        O  0.42986471  0.29042476  0.79941615    -0.39500
O754        O  0.36578270  0.33011677  0.79738399    -0.39560
C755        C  0.35342167  0.77893151  0.82720689    -0.11840
C756        C  0.32958231  0.78646926  0.86310804     0.05160
C757        C  0.31409928  0.83624132  0.87393643    -0.07130
C758        C  0.32671518  0.87767195  0.85003165    -0.07870
C759        C  0.35397488  0.87005432  0.81625717    -0.02430
C760        C  0.36570641  0.81987189  0.80340782     0.04390
N761        N  0.39258701  0.81030780  0.76783746     0.66900
H762        H  0.36266402  0.74047801  0.81769386     0.15800
H763        H  0.31895643  0.91633185  0.86007588     0.15510
N764        N  0.28790790  0.84596372  0.90976032     0.74600
O765        O  0.41445270  0.76906945  0.76417421    -0.38850
O766        O  0.39263689  0.84151036  0.73880078    -0.38790
O767        O  0.29156037  0.81765662  0.94051246    -0.39500
O768        O  0.26358648  0.88550767  0.91209603    -0.39560
C769        C  0.65376041  0.83082619  0.89037733    -0.11840
C770        C  0.65344816  0.78673324  0.86549783     0.05160
C771        C  0.64982879  0.79124087  0.82257482    -0.07130
C772        C  0.64478634  0.83973887  0.80571153    -0.07870
C773        C  0.64021050  0.88323780  0.83069179    -0.02430
C774        C  0.64671411  0.87941368  0.87344798     0.04390
N775        N  0.64468239  0.92414722  0.89968197     0.66900
H776        H  0.65919478  0.82709546  0.92303576     0.15800
H777        H  0.63829546  0.84271252  0.77308997     0.15510
N778        N  0.64909873  0.74704470  0.79583118     0.74600
O779        O  0.64189017  0.91972556  0.93793364    -0.38850
O780        O  0.64882166  0.96823612  0.88511031    -0.38790
O781        O  0.62867505  0.70729904  0.80580465    -0.39500
O782        O  0.66340885  0.75005408  0.75989782    -0.39560
C783        C  0.68905667  0.09740733  0.66297229    -0.11840
C784        C  0.64651296  0.11219281  0.64789451     0.05160
C785        C  0.64411262  0.14399321  0.61319716    -0.07130
C786        C  0.68375284  0.15772686  0.59381658    -0.07870
C787        C  0.72563247  0.14199170  0.60913510    -0.02430
C788        C  0.72831856  0.11207195  0.64456102     0.04390
N789        N  0.77040750  0.09807068  0.66353644     0.66900
H790        H  0.69240527  0.07390080  0.68982402     0.15800
H791        H  0.68204104  0.18287887  0.56780184     0.15510
N792        N  0.60256598  0.16478161  0.59840360     0.74600
O793        O  0.77358288  0.09426599  0.70191884    -0.38850
O794        O  0.80323001  0.08458702  0.64222061    -0.38790
O795        O  0.57950952  0.19291834  0.62168648    -0.39500
O796        O  0.59398467  0.16457124  0.56048263    -0.39560
C797        C  0.67978205  0.94841888  0.63853229    -0.11840
C798        C  0.64278226  0.91577603  0.63864006     0.05160
C799        C  0.64591950  0.86761540  0.61861070    -0.07130
C800        C  0.68698318  0.85201002  0.60208575    -0.07870
C801        C  0.72432521  0.88405918  0.60413820    -0.02430
C802        C  0.72019429  0.93300295  0.62199453     0.04390
N803        N  0.75796201  0.96549828  0.62744274     0.66900
H804        H  0.67811065  0.98567739  0.65331926     0.15800
H805        H  0.69009666  0.81428982  0.58827641     0.15510
N806        N  0.60895574  0.83329676  0.61642322     0.74600
O807        O  0.76682552  0.99740198  0.60029851    -0.38850
O808        O  0.77691428  0.96901320  0.66212004    -0.38790
O809        O  0.57344404  0.84661309  0.59804857    -0.39500
O810        O  0.61480764  0.78683616  0.62504464    -0.39560
C811        C  0.32616928  0.90545090  0.61086179    -0.11840
C812        C  0.33159534  0.90457150  0.65367045     0.05160
C813        C  0.29586343  0.88753869  0.67732447    -0.07130
C814        C  0.25626742  0.87226951  0.65836852    -0.07870
C815        C  0.25019732  0.87325790  0.61586130    -0.02430
C816        C  0.28570483  0.89013953  0.59147014     0.04390
N817        N  0.28159024  0.89186798  0.54759402     0.66900
H818        H  0.35320038  0.91920030  0.59259237     0.15800
H819        H  0.22918319  0.86071002  0.67760386     0.15510
N820        N  0.29858642  0.88558206  0.72095623     0.74600
O821        O  0.30393886  0.92354784  0.52788745    -0.38850
O822        O  0.25859065  0.85922181  0.52805475    -0.38790
O823        O  0.29020726  0.92566921  0.74138935    -0.39500
O824        O  0.29400902  0.84292171  0.73779016    -0.39560
C825        C  0.28754688  0.17131980  0.61144778    -0.11840
C826        C  0.25177304  0.13686771  0.61049887     0.05160
C827        C  0.25897614  0.08635527  0.62402743    -0.07130
C828        C  0.30091805  0.07234270  0.63926123    -0.07870
C829        C  0.33531730  0.10807925  0.64421449    -0.02430
C830        C  0.32911103  0.15788483  0.62894827     0.04390
N831        N  0.36281572  0.19622191  0.63366495     0.66900
H832        H  0.28214459  0.21002935  0.60101572     0.15800
H833        H  0.30562516  0.03374730  0.65029197     0.15510
N834        N  0.22341129  0.05016262  0.62641260     0.74600
O835        O  0.36851134  0.22796422  0.60559025    -0.38850
O836        O  0.38159309  0.20377405  0.66803641    -0.38790
O837        O  0.23015725  0.00408666  0.61616934    -0.39500
O838        O  0.18849295  0.06177229  0.64556718    -0.39560
C839        C  0.63335568  0.23417062  0.83055309    -0.11840
C840        C  0.64512728  0.23600377  0.87210729     0.05160
C841        C  0.64982034  0.18999021  0.89430543    -0.07130
C842        C  0.63818821  0.14380170  0.87445631    -0.07870
C843        C  0.62604792  0.14225499  0.83288015    -0.02430
C844        C  0.62529799  0.18782465  0.81034236     0.04390
N845        N  0.61570921  0.18800711  0.76720549     0.66900
H846        H  0.63237985  0.26919494  0.81322044     0.15800
H847        H  0.63817106  0.10858441  0.89145603     0.15510
N848        N  0.66621018  0.18890865  0.93616235     0.74600
O849        O  0.59145371  0.22292305  0.75214848    -0.38850
O850        O  0.63887437  0.16057826  0.74355561    -0.38790
O851        O  0.67673251  0.22934506  0.95526958    -0.39500
O852        O  0.67234997  0.14676844  0.95382111    -0.39560
C853        C  0.18434797  0.37331371  0.90337326    -0.11840
C854        C  0.21392450  0.37615602  0.87081749     0.05160
C855        C  0.19645175  0.37593798  0.83017967    -0.07130
C856        C  0.14997771  0.37388580  0.82343410    -0.07870
C857        C  0.12025320  0.37273028  0.85603185    -0.02430
C858        C  0.13781935  0.37129440  0.89659260     0.04390
N859        N  0.10887061  0.36708790  0.93103542     0.66900
H860        H  0.19780721  0.37032013  0.93422256     0.15800
H861        H  0.13677018  0.37710364  0.79251021     0.15510
N862        N  0.22535789  0.37825298  0.79551538     0.74600
O863        O  0.12177653  0.38176611  0.96620367    -0.38850
O864        O  0.07197353  0.34449623  0.92723345    -0.38790
O865        O  0.21253816  0.36108768  0.76103258    -0.39500
O866        O  0.26228669  0.40092788  0.79830065    -0.39560
C867        C  0.20261012  0.65251646  0.84834779    -0.11840
C868        C  0.21171149  0.66838331  0.88860366     0.05160
C869        C  0.17589470  0.68639872  0.91307211    -0.07130
C870        C  0.13166052  0.68151228  0.89765465    -0.07870
C871        C  0.12280706  0.66489388  0.85731591    -0.02430
C872        C  0.15923589  0.65300474  0.83200842     0.04390
N873        N  0.15242613  0.64022994  0.78960444     0.66900
H874        H  0.23011100  0.64288866  0.82848981     0.15800
H875        H  0.10381059  0.68912426  0.91753671     0.15510
N876        N  0.18333575  0.70982308  0.95287952     0.74600
O877        O  0.12623614  0.66717244  0.76819086    -0.38850
O878        O  0.17771142  0.60822157  0.77211281    -0.38790
O879        O  0.22144176  0.70973125  0.96990990    -0.39500
O880        O  0.15167825  0.73228080  0.97091795    -0.39560
C881        C  0.83382309  0.66682162  0.83442383    -0.11840
C882        C  0.86453016  0.65609832  0.86606986     0.05160
C883        C  0.84814858  0.64922830  0.90617150    -0.07130
C884        C  0.80166208  0.65070216  0.91282229    -0.07870
C885        C  0.77102164  0.65983267  0.88080138    -0.02430
C886        C  0.78761553  0.66840148  0.84108632     0.04390
N887        N  0.75787593  0.67844062  0.80704780     0.66900
H888        H  0.84564842  0.67088640  0.80354220     0.15800
H889        H  0.78934741  0.64724055  0.94357981     0.15510
N890        N  0.87818175  0.64263034  0.94060295     0.74600
O891        O  0.76969939  0.70739043  0.77874775    -0.38850
O892        O  0.72115596  0.65546727  0.80353146    -0.38790
O893        O  0.91573118  0.66408006  0.94144775    -0.39500
O894        O  0.86522876  0.62071896  0.97234620    -0.39560
C895        C  0.82530975  0.34743283  0.82826743    -0.11840
C896        C  0.85799489  0.35807966  0.85822252     0.05160
C897        C  0.84518078  0.36270817  0.89965361    -0.07130
C898        C  0.79957495  0.36176066  0.90936140    -0.07870
C899        C  0.76660682  0.35579658  0.87881767    -0.02430
C900        C  0.77979237  0.34698155  0.83778321     0.04390
N901        N  0.74741366  0.33926762  0.80520864     0.66900
H902        H  0.83478530  0.34556535  0.79643749     0.15800
H903        H  0.78962130  0.36504628  0.94096851     0.15510
N904        N  0.87816039  0.37091177  0.93165584     0.74600
O905        O  0.71008395  0.36195225  0.80587082    -0.38850
O906        O  0.75754537  0.31327014  0.77384961    -0.38790
O907        O  0.86678891  0.38741286  0.96643724    -0.39500
O908        O  0.91848578  0.35877626  0.92613750    -0.39560
C909        C  0.90373060  0.73966202  0.68823901    -0.11840
C910        C  0.88923090  0.68894319  0.68329714     0.05160
C911        C  0.85447582  0.67875098  0.65423649    -0.07130
C912        C  0.83734968  0.71821251  0.62984287    -0.07870
C913        C  0.85266935  0.76831458  0.63433892    -0.02430
C914        C  0.88572000  0.77940876  0.66458140     0.04390
N915        N  0.89984376  0.83077638  0.67341981     0.66900
H916        H  0.92967553  0.74880754  0.71056078     0.15800
H917        H  0.81094185  0.70990327  0.60772950     0.15510
N918        N  0.83447374  0.62941388  0.65022740     0.74600
O919        O  0.90359219  0.84588618  0.71013640    -0.38850
O920        O  0.91630437  0.85751675  0.64582563    -0.38790
O921        O  0.81318480  0.61191526  0.67976601    -0.39500
O922        O  0.82974736  0.60888982  0.61527627    -0.39560
C923        C  0.06470167  0.73312325  0.68208711    -0.11840
C924        C  0.08118667  0.68265205  0.67980410     0.05160
C925        C  0.11787683  0.67218749  0.65394969    -0.07130
C926        C  0.13635388  0.71165969  0.63126907    -0.07870
C927        C  0.12014734  0.76190604  0.63420812    -0.02430
C928        C  0.08408057  0.77286997  0.66041642     0.04390
N929        N  0.06785458  0.82424558  0.66681201     0.66900
H930        H  0.03703458  0.74227558  0.70180550     0.15800
H931        H  0.16426499  0.70316281  0.61163019     0.15510
N932        N  0.13809354  0.62245955  0.65123987     0.74600
O933        O  0.02687635  0.83242645  0.67261258    -0.38850
O934        O  0.09488764  0.86053507  0.67211336    -0.38790
O935        O  0.14543322  0.60260860  0.61658378    -0.39500
O936        O  0.15693810  0.60364724  0.68244220    -0.39560
C937        C  0.11120936  0.30317216  0.70484067    -0.11840
C938        C  0.08180820  0.33631832  0.68416232     0.05160
C939        C  0.07333084  0.32866419  0.64175318    -0.07130
C940        C  0.09560036  0.28877898  0.62129122    -0.07870
C941        C  0.12469257  0.25515929  0.64190036    -0.02430
C942        C  0.13215890  0.26207547  0.68449781     0.04390
N943        N  0.15857776  0.22650090  0.70797241     0.66900
H944        H  0.11671855  0.30838111  0.73746556     0.15800
H945        H  0.08974704  0.28346467  0.58871929     0.15510
N946        N  0.04072969  0.35844961  0.61925342     0.74600
O947        O  0.18168648  0.24214255  0.73820033    -0.38850
O948        O  0.15413201  0.17899866  0.70224537    -0.38790
O949        O  0.03421524  0.40506310  0.62753016    -0.39500
O950        O  0.02039710  0.33893448  0.58878022    -0.39560
C951        C  0.85833106  0.31040534  0.61230024    -0.11840
C952        C  0.84806675  0.26374404  0.63007527     0.05160
C953        C  0.85902911  0.25573481  0.67174882    -0.07130
C954        C  0.87873796  0.29535194  0.69490383    -0.07870
C955        C  0.88918109  0.34224412  0.67726555    -0.02430
C956        C  0.87939124  0.34946658  0.63512514     0.04390
N957        N  0.89274988  0.39470537  0.61445527     0.66900
H958        H  0.85100390  0.31587023  0.58008398     0.15800
H959        H  0.88665363  0.28917750  0.72691711     0.15510
N960        N  0.85186676  0.20727121  0.69062847     0.74600
O961        O  0.93229033  0.41036973  0.61840871    -0.38850
O962        O  0.86767440  0.41385748  0.58718475    -0.38790
O963        O  0.86135116  0.16623176  0.67186604    -0.39500
O964        O  0.84224325  0.20547998  0.72798708    -0.39560
loop_ 
_geom_bond_atom_site_label_1 
_geom_bond_atom_site_label_2 
_geom_bond_distance 
_geom_bond_site_symmetry_2 
_ccdc_geom_bond_type 
O1          Zr13   2.381       .  S
O1            C3   1.276       .  A
O2          Zr39   2.476       .  S
O2            C3   1.298       .  A
C3          C896   1.472       .  S
O4          Zr16   2.440       .  S
O4            C6   1.288       .  A
O5          Zr40   2.438       .  S
O5            C6   1.292       .  A
C6          C910   1.497       .  S
O7          Zr16   2.450       .  S
O7            C9   1.290       .  A
O8          Zr39   2.433       .  S
O8            C9   1.290       .  A
C9          C955   1.487       .  S
O10         Zr13   2.403       .  S
O10          C12   1.271       .  A
O11         Zr40   2.477       .  S
O11          C12   1.291       .  A
C12         C882   1.496       .  S
Zr13         O14   2.435       .  S
Zr13         O15   2.437       .  S
Zr13         O19   2.373       .  S
Zr13         O20   2.369       .  S
Zr13         O43   2.367       .  S
Zr13         O45   2.361       .  S
O14          H57   0.990       .  S
O15          H56   0.990       .  S
O15          H60   0.990       .  S
Zr16         O17   2.434       .  S
Zr16         O18   2.433       .  S
Zr16         O20   2.370       .  S
Zr16         O19   2.358       .  S
Zr16         O44   2.365       .  S
Zr16         O46   2.369       .  S
O17          H58   0.990       .  S
O17          H61   0.990       .  S
O18          H51   0.990       .  S
O19         Zr39   2.385       .  S
O20         Zr40   2.406       .  S
O20          H47   0.965       .  S
O21         Zr33   2.389       .  S
O21          C23   1.278       .  A
O22         Zr40   2.492   1_455  S
O22          C23   1.300       .  A
C23         C871   1.475       .  S
O24         Zr36   2.446       .  S
O24          C26   1.289       .  A
O25         Zr39   2.433   1_455  S
O25          C26   1.289       .  A
C26         C938   1.474       .  S
O27         Zr36   2.449       .  S
O27          C29   1.288       .  A
O28         Zr40   2.431   1_455  S
O28          C29   1.290       .  A
C29         C924   1.499       .  S
O30         Zr33   2.394       .  S
O30          C32   1.269       .  A
O31         Zr39   2.485   1_455  S
O31          C32   1.293       .  A
C32         C857   1.485       .  S
Zr33         O34   2.437       .  S
Zr33         O35   2.433       .  S
Zr33         O41   2.377       .  S
Zr33         O42   2.370       .  S
Zr33         O45   2.375   1_455  S
Zr33         O43   2.358   1_455  S
O34          H54   0.990       .  S
O34          H59   0.990       .  S
O35          H55   0.990       .  S
Zr36         O37   2.434       .  S
Zr36         O38   2.435       .  S
Zr36         O42   2.369       .  S
Zr36         O41   2.357       .  S
Zr36         O46   2.365   1_455  S
Zr36         O44   2.362   1_455  S
O37          H53   0.990       .  S
O38          H52   0.990       .  S
O38          H62   0.990       .  S
Zr39         O42   2.383   1_655  S
Zr39         O44   2.400       .  S
Zr39         O45   2.398       .  S
Zr40         O41   2.390   1_655  S
Zr40         O43   2.391       .  S
Zr40         O46   2.397       .  S
O41          H49   0.963       .  S
O44          H48   0.965       .  S
O45          H50   0.966       .  S
C63         C899   1.485       .  S
C63          C64   1.390       .  A
C63          C68   1.421       .  A
C64          C65   1.385       .  A
C64          H69   1.086       .  S
C65         C840   1.467       .  S
C65          C66   1.402       .  A
C66          C67   1.414       .  A
C66          H70   1.083       .  S
C67         C205   1.506       .  S
C67          C68   1.425       .  A
C68          H71   1.083       .  S
O72         Zr84   2.419       .  S
O72          C74   1.276       .  A
O73        Zr110   2.424       .  S
O73          C74   1.280       .  A
C74         C843   1.467       .  S
O75         Zr87   2.370       .  S
O75          C77   1.275       .  A
O76        Zr111   2.441   1_565  S
O76          C77   1.288       .  A
C77         C759   1.455       .  S
O78         Zr87   2.391       .  S
O78          C80   1.277       .  A
O79        Zr110   2.434   1_565  S
O79          C80   1.287       .  A
C80         C773   1.457       .  S
O81         Zr84   2.411       .  S
O81          C83   1.276       .  A
O82        Zr111   2.425       .  S
O82          C83   1.283       .  A
C83         C745   1.455       .  S
Zr84         O85   2.434       .  S
Zr84         O86   2.437       .  S
Zr84         O90   2.370       .  S
Zr84         O91   2.379       .  S
Zr84        O114   2.375       .  S
Zr84        O116   2.376       .  S
O85         H128   0.990       .  S
O86         H127   0.988       .  S
O86         H131   0.990       .  S
Zr87         O88   2.436       .  S
Zr87         O89   2.434       .  S
Zr87         O91   2.359   1_565  S
Zr87         O90   2.348   1_565  S
Zr87        O115   2.366       .  S
Zr87        O117   2.367       .  S
O88         H129   0.990       .  S
O88         H132   0.990       .  S
O89         H122   0.990       .  S
O90        Zr110   2.369       .  S
O91        Zr111   2.377       .  S
O91         H118   0.966       .  S
O92        Zr104   2.466       .  S
O92          C94   1.291       .  A
O93        Zr111   2.388       .  S
O93          C94   1.282       .  A
C94         C829   1.475       .  S
O95        Zr107   2.468       .  S
O95          C97   1.291       .  A
O96        Zr110   2.387   1_565  S
O96          C97   1.282       .  A
C97         C798   1.483       .  S
O98        Zr107   2.495       .  S
O98         C100   1.298       .  A
O99        Zr111   2.389   1_565  S
O99         C100   1.280       .  A
C100        C812   1.484       .  S
O101       Zr104   2.475       .  S
O101        C103   1.292       .  A
O102       Zr110   2.374       .  S
O102        C103   1.280       .  A
C103        C784   1.496       .  S
Zr104       O105   2.435       .  S
Zr104       O106   2.434       .  S
Zr104       O112   2.374       .  S
Zr104       O113   2.368       .  S
Zr104       O116   2.374       .  S
Zr104       O114   2.385       .  S
O105        H125   0.990       .  S
O105        H130   0.990       .  S
O106        H126   0.990       .  S
Zr107       O108   2.433       .  S
Zr107       O109   2.435       .  S
Zr107       O113   2.374   1_565  S
Zr107       O112   2.362   1_565  S
Zr107       O117   2.364       .  S
Zr107       O115   2.384       .  S
O108        H124   0.990       .  S
O109        H123   0.990       .  S
O109        H133   0.990       .  S
Zr110       O113   2.385       .  S
Zr110       O115   2.375   1_545  S
Zr110       O116   2.391       .  S
Zr111       O112   2.392       .  S
Zr111       O114   2.383       .  S
Zr111       O117   2.370   1_545  S
O112        H120   0.965       .  S
O115        H119   0.966       .  S
O116        H121   0.964       .  S
C134        C868   1.480       .  S
C134        C135   1.389       .  A
C134        C139   1.420       .  A
C135        C136   1.386       .  A
C135        H140   1.086       .  S
C136        C756   1.471       .  S
C136        C137   1.406       .  A
C137        C138   1.408       .  A
C137        H141   1.084       .  S
C138        C225   1.504       .  S
C138        C139   1.423       .  A
C139        H142   1.083       .  S
C143        C885   1.496       .  S
C143        C144   1.422       .  A
C143        C148   1.392       .  A
C144        C145   1.430       .  A
C144        H149   1.083       .  S
C145        C222   1.510       .  S
C145        C146   1.413       .  A
C146        C147   1.404       .  A
C146        H150   1.083       .  S
C147        C770   1.469       .  S
C147        C148   1.387       .  A
C148        H151   1.086       .  S
C152        C854   1.487       .  S
C152        C153   1.393       .  A
C152        C157   1.421       .  A
C153        C154   1.388       .  A
C153        H158   1.085       .  S
C154        C742   1.473       .  S
C154        C155   1.401       .  A
C155        C156   1.408       .  A
C155        H159   1.084       .  S
C156        C202   1.501       .  S
C156        C157   1.424       .  A
C157        H160   1.083       .  S
C161        C826   1.480       .  S
C161        C162   1.408       .  A
C161        C166   1.408       .  A
C162        C163   1.400       .  A
C162        H167   1.083       .  S
C163        C941   1.488       .  S
C163        C164   1.397       .  A
C164        C165   1.407       .  A
C164        H168   1.083       .  S
C165        C457   1.481       .  S
C165        C166   1.401       .  A
C166        H169   1.083       .  S
C170        C815   1.490       .  S
C170        C171   1.410       .  A
C170        C175   1.414       .  A
C171        C172   1.396       .  A
C171        H176   1.084       .  S
C172        C927   1.488       .  S
C172        C173   1.394       .  A
C173        C174   1.411       .  A
C173        H177   1.084       .  S
C174        C463   1.487       .  S
C174        C175   1.410       .  A
C175        H178   1.083       .  S
C179        C787   1.471       .  S
C179        C180   1.402       .  A
C179        C184   1.408       .  A
C180        C181   1.396       .  A
C180        H185   1.084       .  S
C181        C952   1.480       .  S
C181        C182   1.398       .  A
C182        C183   1.413       .  A
C182        H186   1.084       .  S
C183        C466   1.487       .  S
C183        C184   1.405       .  A
C184        H187   1.084       .  S
C188        C801   1.477       .  S
C188        C189   1.405       .  A
C188        C193   1.409       .  A
C189        C190   1.399       .  A
C189        H194   1.084       .  S
C190        C913   1.482       .  S
C190        C191   1.396       .  A
C191        C192   1.411       .  A
C191        H195   1.084       .  S
C192        C460   1.485       .  S
C192        C193   1.402       .  A
C193        H196   1.082       .  S
O197       Zr209   2.440       .  S
O197        C199   1.288       .  A
O198       Zr235   2.449   1_554  S
O198        C199   1.291       .  A
C199        C270   1.496       .  S
O200       Zr212   2.484       .  S
O200        C202   1.297       .  A
O201       Zr236   2.435       .  S
O201        C202   1.287       .  A
O203       Zr212   2.471       .  S
O203        C205   1.295       .  A
O204       Zr235   2.451       .  S
O204        C205   1.290       .  A
O206       Zr209   2.448       .  S
O206        C208   1.289       .  A
O207       Zr236   2.449   1_554  S
O207        C208   1.291       .  A
C208        C412   1.489       .  S
Zr209       O210   2.434       .  S
Zr209       O211   2.434       .  S
Zr209       O215   2.370   1_554  S
Zr209       O216   2.372   1_554  S
Zr209       O239   2.376       .  S
Zr209       O241   2.379       .  S
O210        H253   0.990       .  S
O211        H252   0.990       .  S
O211        H256   0.990       .  S
Zr212       O213   2.438       .  S
Zr212       O214   2.434       .  S
Zr212       O216   2.369       .  S
Zr212       O215   2.373       .  S
Zr212       O240   2.384       .  S
Zr212       O242   2.380       .  S
O213        H254   0.990       .  S
O213        H257   0.990       .  S
O214        H247   0.990       .  S
O215       Zr235   2.383       .  S
O216       Zr236   2.388       .  S
O216        H243   0.965       .  S
O217       Zr229   2.477       .  S
O217        C219   1.294       .  A
O218       Zr236   2.420   1_554  S
O218        C219   1.286       .  A
C219        C261   1.489       .  S
O220       Zr232   2.499       .  S
O220        C222   1.301       .  A
O221       Zr235   2.436       .  S
O221        C222   1.288       .  A
O223       Zr232   2.499       .  S
O223        C225   1.301       .  A
O224       Zr236   2.434       .  S
O224        C225   1.287       .  A
O226       Zr229   2.454       .  S
O226        C228   1.291       .  A
O227       Zr235   2.439   1_554  S
O227        C228   1.290       .  A
C228        C279   1.493       .  S
Zr229       O230   2.438       .  S
Zr229       O231   2.434       .  S
Zr229       O237   2.362   1_554  S
Zr229       O238   2.374   1_554  S
Zr229       O241   2.386       .  S
Zr229       O239   2.382       .  S
O230        H250   0.990       .  S
O230        H255   0.990       .  S
O231        H251   0.990       .  S
Zr232       O233   2.434       .  S
Zr232       O234   2.433       .  S
Zr232       O238   2.369       .  S
Zr232       O237   2.376       .  S
Zr232       O242   2.385       .  S
Zr232       O240   2.386       .  S
O233        H249   0.990       .  S
O234        H248   0.990       .  S
O234        H258   0.990       .  S
Zr235       O238   2.391       .  S
Zr235       O240   2.404       .  S
Zr235       O241   2.400   1_556  S
Zr236       O237   2.398       .  S
Zr236       O239   2.392   1_556  S
Zr236       O242   2.399       .  S
O237        H245   0.964       .  S
O240        H244   0.966       .  S
O241        H246   0.966       .  S
C259        C717   1.475       .  S
C259        C260   1.403       .  A
C259        C264   1.397       .  A
C260        C261   1.411       .  A
C260        H265   1.084       .  S
C261        C262   1.412       .  A
C262        C263   1.410       .  A
C262        H266   1.084       .  S
C263        C728   1.485       .  S
C263        C264   1.397       .  A
C264        H267   1.085       .  S
C268        C700   1.508       .  S
C268        C269   1.420       .  A
C268        C273   1.408       .  A
C269        C270   1.411       .  A
C269        H274   1.080       .  S
C270        C271   1.409       .  A
C271        C272   1.404       .  A
C271        H275   1.083       .  S
C272        C686   1.495       .  S
C272        C273   1.396       .  A
C273        H276   1.077       .  S
C277        C658   1.476       .  S
C277        C278   1.408       .  A
C277        C282   1.398       .  A
C278        C279   1.408       .  A
C278        H283   1.084       .  S
C279        C280   1.411       .  A
C280        C281   1.409       .  A
C280        H284   1.084       .  S
C281        C672   1.479       .  S
C281        C282   1.395       .  A
C282        H285   1.085       .  S
O286       Zr298   2.401       .  S
O286        C288   1.280       .  A
O287       Zr324   2.460   1_565  S
O287        C288   1.292       .  A
C288        C731   1.479       .  S
O289       Zr301   2.448       .  S
O289        C291   1.289       .  A
O290       Zr325   2.389   1_565  S
O290        C291   1.283       .  A
C291        C602   1.477       .  S
O292       Zr301   2.452       .  S
O292        C294   1.289       .  A
O293       Zr324   2.424   1_565  S
O293        C294   1.287       .  A
C294        C647   1.467       .  S
O295       Zr298   2.403       .  S
O295        C297   1.281       .  A
O296       Zr325   2.456   1_565  S
O296        C297   1.291       .  A
C297        C675   1.470       .  S
Zr298       O299   2.434       .  S
Zr298       O300   2.434       .  S
Zr298       O304   2.375       .  S
Zr298       O305   2.370       .  S
Zr298       O328   2.367   1_565  S
Zr298       O330   2.363   1_565  S
O299        H342   0.990       .  S
O300        H341   0.990       .  S
O300        H345   0.990       .  S
Zr301       O302   2.435       .  S
Zr301       O303   2.434       .  S
Zr301       O305   2.365       .  S
Zr301       O304   2.374       .  S
Zr301       O329   2.355   1_565  S
Zr301       O331   2.367   1_565  S
O302        H343   0.990       .  S
O302        H346   0.990       .  S
O303        H336   0.990       .  S
O304       Zr324   2.382   1_565  S
O305       Zr325   2.389   1_565  S
O305        H332   0.965       .  S
O306       Zr318   2.400       .  S
O306        C308   1.279       .  A
O307       Zr325   2.462       .  S
O307        C308   1.292       .  A
C308        C689   1.482       .  S
O309       Zr321   2.442       .  S
O309        C311   1.287       .  A
O310       Zr324   2.395       .  S
O310        C311   1.285       .  A
C311        C630   1.479       .  S
O312       Zr321   2.432       .  S
O312        C314   1.284       .  A
O313       Zr325   2.426       .  S
O313        C314   1.287       .  A
C314        C616   1.464       .  S
O315       Zr318   2.403       .  S
O315        C317   1.275       .  A
O316       Zr324   2.467       .  S
O316        C317   1.289       .  A
C317        C591   1.471       .  S
Zr318       O319   2.440       .  S
Zr318       O320   2.435       .  S
Zr318       O326   2.381       .  S
Zr318       O327   2.361       .  S
Zr318       O330   2.370       .  S
Zr318       O328   2.368       .  S
O319        H339   0.990       .  S
O319        H344   0.990       .  S
O320        H340   0.990       .  S
Zr321       O322   2.434       .  S
Zr321       O323   2.437       .  S
Zr321       O327   2.356       .  S
Zr321       O326   2.377       .  S
Zr321       O331   2.360       .  S
Zr321       O329   2.355       .  S
O322        H338   0.990       .  S
O323        H337   0.990       .  S
O323        H347   0.990       .  S
Zr324       O327   2.380       .  S
Zr324       O329   2.395       .  S
Zr324       O330   2.385       .  S
Zr325       O326   2.388       .  S
Zr325       O328   2.379       .  S
Zr325       O331   2.389       .  S
O326        H334   0.966       .  S
O329        H333   0.963       .  S
O330        H335   0.966       .  S
O348       Zr360   2.463   1_455  S
O348        C350   1.288       .  A
O349       Zr386   2.394       .  S
O349        C350   1.279       .  A
C350        C714   1.484       .  S
O351       Zr363   2.391       .  S
O351        C353   1.279       .  A
O352       Zr387   2.468       .  S
O352        C353   1.294       .  A
C353        C549   1.474       .  S
O354       Zr363   2.390   1_455  S
O354        C356   1.279       .  A
O355       Zr386   2.469       .  S
O355        C356   1.292       .  A
C356        C532   1.494       .  S
O357       Zr360   2.485       .  S
O357        C359   1.298       .  A
O358       Zr387   2.371       .  S
O358        C359   1.276       .  A
C359        C661   1.494       .  S
Zr360       O361   2.434       .  S
Zr360       O362   2.439       .  S
Zr360       O366   2.413   1_655  S
Zr360       O367   2.354       .  S
Zr360       O390   2.373       .  S
Zr360       O392   2.354   1_655  S
O361        H404   0.990   1_655  S
O362        H403   0.987   1_655  S
O362        H407   0.990   1_655  S
Zr363       O364   2.436       .  S
Zr363       O365   2.434       .  S
Zr363       O367   2.373       .  S
Zr363       O366   2.396   1_655  S
Zr363       O391   2.382   1_655  S
Zr363       O393   2.382       .  S
O364        H405   0.990       .  S
O364        H408   0.990       .  S
O365        H398   0.990       .  S
O366       Zr386   2.400       .  S
O367       Zr387   2.404       .  S
O367        H394   0.964       .  S
O368       Zr380   2.443       .  S
O368        C370   1.287       .  A
O369       Zr387   2.431       .  S
O369        C370   1.289       .  A
C370        C703   1.475       .  S
O371       Zr383   2.391   1_455  S
O371        C373   1.274       .  A
O372       Zr386   2.452       .  S
O372        C373   1.287       .  A
C373        C577   1.465       .  S
O374       Zr383   2.399       .  S
O374        C376   1.278       .  A
O375       Zr387   2.451       .  S
O375        C376   1.291       .  A
C376        C563   1.466       .  S
O377       Zr380   2.441   1_455  S
O377        C379   1.284       .  A
O378       Zr386   2.415       .  S
O378        C379   1.283       .  A
C379        C521   1.471       .  S
Zr380       O381   2.436       .  S
Zr380       O382   2.433   1_655  S
Zr380       O388   2.363       .  S
Zr380       O389   2.389   1_655  S
Zr380       O392   2.345   1_655  S
Zr380       O390   2.371       .  S
O381        H401   0.990       .  S
O381        H406   0.990   1_655  S
O382        H402   0.990   1_455  S
Zr383       O384   2.435       .  S
Zr383       O385   2.437   1_655  S
Zr383       O389   2.403   1_655  S
Zr383       O388   2.384       .  S
Zr383       O393   2.374       .  S
Zr383       O391   2.376   1_655  S
O384        H400   0.990       .  S
O385        H399   0.990   1_455  S
O385        H409   0.990       .  S
Zr386       O389   2.398       .  S
Zr386       O391   2.358       .  S
Zr386       O392   2.333       .  S
Zr387       O388   2.400       .  S
Zr387       O390   2.420       .  S
Zr387       O393   2.383       .  S
O388        H396   0.966       .  S
O391        H395   0.966       .  S
O392        H397   0.961   1_455  S
C410        C518   1.488       .  S
C410        C411   1.409       .  A
C410        C415   1.399       .  A
C411        C412   1.411       .  A
C411        H416   1.083       .  S
C412        C413   1.415       .  A
C413        C414   1.406       .  A
C413        H417   1.083       .  S
C414        C588   1.480       .  S
C414        C415   1.392       .  A
C415        H418   1.084       .  S
C419        C633   1.461       .  S
C419        C420   1.390       .  A
C419        C424   1.396       .  A
C420        C421   1.396       .  A
C420        H425   1.085       .  S
C421        C574   1.488       .  S
C421        C422   1.414       .  A
C422        C423   1.415       .  A
C422        H426   1.083       .  S
C423        C486   1.482       .  S
C423        C424   1.403       .  A
C424        H427   1.084       .  S
C428        C619   1.506       .  S
C428        C429   1.405       .  A
C428        C433   1.418       .  A
C429        C430   1.392       .  A
C429        H434   1.080       .  S
C430        C560   1.478       .  S
C430        C431   1.401       .  A
C431        C432   1.410       .  A
C431        H435   1.083       .  S
C432        C477   1.491       .  S
C432        C433   1.411       .  A
C433        H436   1.081       .  S
C437        C644   1.491       .  S
C437        C438   1.401       .  A
C437        C442   1.407       .  A
C438        C439   1.402       .  A
C438        H443   1.082       .  S
C439        C535   1.500       .  S
C439        C440   1.413       .  A
C440        C441   1.409       .  A
C440        H444   1.082       .  S
C441        C480   1.485       .  S
C441        C442   1.405       .  A
C442        H445   1.083       .  S
C446        C605   1.480       .  S
C446        C447   1.397       .  A
C446        C451   1.400       .  A
C447        C448   1.396       .  A
C447        H452   1.084       .  S
C448        C546   1.482       .  S
C448        C449   1.411       .  A
C449        C450   1.412       .  A
C449        H453   1.083       .  S
C450        C483   1.486       .  S
C450        C451   1.405       .  A
C451        H454   1.083       .  S
O455       Zr467   2.411   1_455  S
O455        C457   1.283       .  A
O456       Zr493   2.443       .  S
O456        C457   1.290       .  A
O458       Zr470   2.403       .  S
O458        C460   1.281       .  A
O459       Zr494   2.456   1_565  S
O459        C460   1.292       .  A
O461       Zr470   2.416   1_455  S
O461        C463   1.284       .  A
O462       Zr493   2.454   1_565  S
O462        C463   1.290       .  A
O464       Zr467   2.407       .  S
O464        C466   1.282       .  A
O465       Zr494   2.455       .  S
O465        C466   1.292       .  A
Zr467       O468   2.434       .  S
Zr467       O469   2.438       .  S
Zr467       O473   2.368   1_655  S
Zr467       O474   2.361       .  S
Zr467       O497   2.360       .  S
Zr467       O499   2.353   1_655  S
O468        H511   0.990   1_655  S
O469        H510   0.990   1_655  S
O469        H514   0.990       .  S
Zr470       O471   2.434       .  S
Zr470       O472   2.434       .  S
Zr470       O474   2.366   1_565  S
Zr470       O473   2.357   1_665  S
Zr470       O498   2.359   1_655  S
Zr470       O500   2.361       .  S
O471        H512   0.990       .  S
O471        H515   0.990       .  S
O472        H505   0.990       .  S
O473       Zr493   2.388       .  S
O474       Zr494   2.388       .  S
O474        H501   0.966       .  S
O475       Zr487   2.449       .  S
O475        C477   1.289       .  A
O476       Zr494   2.440       .  S
O476        C477   1.290       .  A
O478       Zr490   2.463   1_455  S
O478        C480   1.292       .  A
O479       Zr493   2.431   1_565  S
O479        C480   1.289       .  A
O481       Zr490   2.465       .  S
O481        C483   1.291       .  A
O482       Zr494   2.411   1_565  S
O482        C483   1.286       .  A
O484       Zr487   2.457   1_455  S
O484        C486   1.290       .  A
O485       Zr493   2.428       .  S
O485        C486   1.289       .  A
Zr487       O488   2.433       .  S
Zr487       O489   2.435       .  S
Zr487       O495   2.380       .  S
Zr487       O496   2.379   1_655  S
Zr487       O499   2.372   1_655  S
Zr487       O497   2.370       .  S
O488        H508   0.990       .  S
O488        H513   0.990   1_655  S
O489        H509   0.990       .  S
Zr490       O491   2.434       .  S
Zr490       O492   2.439       .  S
Zr490       O496   2.386   1_665  S
Zr490       O495   2.384   1_565  S
Zr490       O500   2.367       .  S
Zr490       O498   2.370   1_655  S
O491        H507   0.990   1_655  S
O492        H506   0.990       .  S
O492        H516   0.990       .  S
Zr493       O496   2.401       .  S
Zr493       O498   2.389   1_545  S
Zr493       O499   2.390       .  S
Zr494       O495   2.406       .  S
Zr494       O497   2.379       .  S
Zr494       O500   2.385   1_545  S
O495        H503   0.966       .  S
O498        H502   0.965       .  S
O499        H504   0.964       .  S
C517        C518   1.403       .  A
C517        C522   1.414       .  A
C517        H524   1.083       .  S
C518        C519   1.414       .  A
C519        C520   1.388       .  A
C519        N526   1.430       .  S
C520        C521   1.395       .  A
C520        H525   1.084       .  S
C521        C522   1.425       .  A
C522        N523   1.445       .  S
N523        O527   1.263       .  A
N523        O528   1.260       .  A
N526        O529   1.262       .  A
N526        O530   1.262       .  A
C531        C532   1.412       .  A
C531        C536   1.404       .  A
C531        H538   1.084       .  S
C532        C533   1.411       .  A
C533        C534   1.406       .  A
C533        N540   1.439       .  S
C534        C535   1.412       .  A
C534        H539   1.077       .  S
C535        C536   1.413       .  A
C536        N537   1.440       .  S
N537        O541   1.263       .  A
N537        O542   1.263       .  A
N540        O543   1.263       .  A
N540        O544   1.262       .  A
C545        C546   1.405       .  A
C545        C550   1.400       .  A
C545        H552   1.084       .  S
C546        C547   1.412       .  A
C547        C548   1.405       .  A
C547        N554   1.441       .  S
C548        C549   1.408       .  A
C548        H553   1.084       .  S
C549        C550   1.413       .  A
C550        N551   1.434       .  S
N551        O555   1.263       .  A
N551        O556   1.261       .  A
N554        O557   1.263       .  A
N554        O558   1.263       .  A
C559        C560   1.401       .  A
C559        C564   1.408       .  A
C559        H566   1.084       .  S
C560        C561   1.420       .  A
C561        C562   1.402       .  A
C561        N568   1.444       .  S
C562        C563   1.398       .  A
C562        H567   1.085       .  S
C563        C564   1.416       .  A
C564        N565   1.443       .  S
N565        O569   1.263       .  A
N565        O570   1.263       .  A
N568        O571   1.263       .  A
N568        O572   1.262       .  A
C573        C574   1.411       .  A
C573        C578   1.403       .  A
C573        H580   1.083       .  S
C574        C575   1.412       .  A
C575        C576   1.403       .  A
C575        N582   1.439       .  S
C576        C577   1.406       .  A
C576        H581   1.084       .  S
C577        C578   1.407       .  A
C578        N579   1.441       .  S
N579        O583   1.262       .  A
N579        O584   1.262       .  A
N582        O585   1.262       .  A
N582        O586   1.263       .  A
C587        C588   1.400       .  A
C587        C592   1.397       .  A
C587        H594   1.081       .  S
C588        C589   1.418       .  A
C589        C590   1.415       .  A
C589        N596   1.444       .  S
C590        C591   1.406       .  A
C590        H595   1.084       .  S
C591        C592   1.412       .  A
C592        N593   1.442       .  S
N593        O597   1.263       .  A
N593        O598   1.262       .  A
N596        O599   1.262       .  A
N596        O600   1.263       .  A
C601        C602   1.405       .  A
C601        C606   1.391       .  A
C601        H608   1.084       .  S
C602        C603   1.414       .  A
C603        C604   1.402       .  A
C603        N610   1.435       .  S
C604        C605   1.406       .  A
C604        H609   1.084       .  S
C605        C606   1.414       .  A
C606        N607   1.436       .  S
N607        O611   1.263       .  A
N607        O612   1.263   1_565  A
N610        O613   1.262       .  A
N610        O614   1.262       .  A
C615        C616   1.388       .  A
C615        C620   1.390       .  A
C615        H622   1.084       .  S
C616        C617   1.414       .  A
C617        C618   1.412       .  A
C617        N624   1.445       .  S
C618        C619   1.412       .  A
C618        H623   1.081       .  S
C619        C620   1.426       .  A
C620        N621   1.430       .  S
N621        O625   1.260       .  A
N621        O626   1.263       .  A
N624        O627   1.262       .  A
N624        O628   1.263       .  A
C629        C630   1.404       .  A
C629        C634   1.387       .  A
C629        H636   1.084       .  S
C630        C631   1.419       .  A
C631        C632   1.403       .  A
C631        N638   1.432       .  S
C632        C633   1.399       .  A
C632        H637   1.084       .  S
C633        C634   1.408       .  A
C634        N635   1.435       .  S
N635        O639   1.262       .  A
N635        O640   1.262       .  A
N638        O641   1.262       .  A
N638        O642   1.262       .  A
C643        C644   1.406       .  A
C643        C648   1.408       .  A
C643        H650   1.083       .  S
C644        C645   1.420       .  A
C645        C646   1.395       .  A
C645        N652   1.435       .  S
C646        C647   1.391       .  A
C646        H651   1.080       .  S
C647        C648   1.416       .  A
C648        N649   1.441       .  S
N649        O653   1.263   1_565  A
N649        O654   1.262   1_565  A
N652        O655   1.263       .  A
N652        O656   1.263       .  A
C657        C658   1.394       .  A
C657        C662   1.389       .  A
C657        H664   1.085       .  S
C658        C659   1.417       .  A
C659        C660   1.413       .  A
C659        N666   1.443       .  S
C660        C661   1.409       .  A
C660        H665   1.083       .  S
C661        C662   1.427       .  A
C662        N663   1.435       .  S
N663        O667   1.262       .  A
N663        O668   1.262       .  A
N666        O669   1.263       .  A
N666        O670   1.263       .  A
C671        C672   1.407       .  A
C671        C676   1.414       .  A
C671        H678   1.083       .  S
C672        C673   1.411       .  A
C673        C674   1.396       .  A
C673        N680   1.441       .  S
C674        C675   1.404       .  A
C674        H679   1.085       .  S
C675        C676   1.415       .  A
C676        N677   1.444       .  S
N677        O681   1.263       .  A
N677        O682   1.262       .  A
N680        O683   1.263       .  A
N680        O684   1.263       .  A
C685        C686   1.411       .  A
C685        C690   1.408       .  A
C685        H692   1.083       .  S
C686        C687   1.416       .  A
C687        C688   1.398       .  A
C687        N694   1.439       .  S
C688        C689   1.406       .  A
C688        H693   1.085       .  S
C689        C690   1.414       .  A
C690        N691   1.436       .  S
N691        O695   1.262       .  A
N691        O696   1.260       .  A
N694        O697   1.261       .  A
N694        O698   1.263       .  A
C699        C700   1.408       .  A
C699        C704   1.403       .  A
C699        H706   1.079       .  S
C700        C701   1.427       .  A
C701        C702   1.407       .  A
C701        N708   1.440       .  S
C702        C703   1.397       .  A
C702        H707   1.083       .  S
C703        C704   1.412       .  A
C704        N705   1.443       .  S
N705        O709   1.263       .  A
N705        O710   1.262       .  A
N708        O711   1.263       .  A
N708        O712   1.263       .  A
C713        C714   1.406       .  A
C713        C718   1.414       .  A
C713        H720   1.083       .  S
C714        C715   1.414       .  A
C715        C716   1.391       .  A
C715        N722   1.432       .  S
C716        C717   1.395       .  A
C716        H721   1.085       .  S
C717        C718   1.416       .  A
C718        N719   1.439       .  S
N719        O723   1.263       .  A
N719        O724   1.262       .  A
N722        O725   1.262       .  A
N722        O726   1.263       .  A
C727        C728   1.403       .  A
C727        C732   1.404       .  A
C727        H734   1.084       .  S
C728        C729   1.414       .  A
C729        C730   1.408       .  A
C729        N736   1.443       .  S
C730        C731   1.408       .  A
C730        H735   1.084       .  S
C731        C732   1.412       .  A
C732        N733   1.436       .  S
N733        O737   1.262       .  A
N733        O738   1.262       .  A
N736        O739   1.262       .  A
N736        O740   1.263       .  A
C741        C742   1.409       .  A
C741        C746   1.407       .  A
C741        H748   1.083       .  S
C742        C743   1.410       .  A
C743        C744   1.392       .  A
C743        N750   1.439       .  S
C744        C745   1.400       .  A
C744        H749   1.085       .  S
C745        C746   1.410       .  A
C746        N747   1.444       .  S
N747        O751   1.263       .  A
N747        O752   1.262       .  A
N750        O753   1.263       .  A
N750        O754   1.263       .  A
C755        C756   1.397       .  A
C755        C760   1.390       .  A
C755        H762   1.084       .  S
C756        C757   1.421       .  A
C757        C758   1.405       .  A
C757        N764   1.441       .  S
C758        C759   1.397       .  A
C758        H763   1.084       .  S
C759        C760   1.416       .  A
C760        N761   1.445       .  S
N761        O765   1.263       .  A
N761        O766   1.262       .  A
N764        O767   1.261       .  A
N764        O768   1.263       .  A
C769        C770   1.403       .  A
C769        C774   1.407       .  A
C769        H776   1.083       .  S
C770        C771   1.413       .  A
C771        C772   1.397       .  A
C771        N778   1.440       .  S
C772        C773   1.399       .  A
C772        H777   1.085       .  S
C773        C774   1.414       .  A
C774        N775   1.443       .  S
N775        O779   1.263       .  A
N775        O780   1.263       .  A
N778        O781   1.262       .  A
N778        O782   1.263       .  A
C783        C784   1.412       .  A
C783        C788   1.392       .  A
C783        H790   1.082       .  S
C784        C785   1.418       .  A
C785        C786   1.410       .  A
C785        N792   1.434       .  S
C786        C787   1.404       .  A
C786        H791   1.084       .  S
C787        C788   1.409       .  A
C788        N789   1.443       .  S
N789        O793   1.263       .  A
N789        O794   1.261       .  A
N792        O795   1.263       .  A
N792        O796   1.262       .  A
C797        C798   1.407       .  A
C797        C802   1.390       .  A
C797        H804   1.083       .  S
C798        C799   1.415       .  A
C799        C800   1.409       .  A
C799        N806   1.434       .  S
C800        C801   1.406       .  A
C800        H805   1.084       .  S
C801        C802   1.406       .  A
C802        N803   1.430       .  S
N803        O807   1.261       .  A
N803        O808   1.262       .  A
N806        O809   1.262       .  A
N806        O810   1.262       .  A
C811        C812   1.407       .  A
C811        C816   1.418       .  A
C811        H818   1.083       .  S
C812        C813   1.413       .  A
C813        C814   1.389       .  A
C813        N820   1.430       .  S
C814        C815   1.400       .  A
C814        H819   1.085       .  S
C815        C816   1.420       .  A
C816        N817   1.440       .  S
N817        O821   1.263       .  A
N817        O822   1.262       .  A
N820        O823   1.262       .  A
N820        O824   1.262       .  A
C825        C826   1.408       .  A
C825        C830   1.406       .  A
C825        H832   1.084       .  S
C826        C827   1.414       .  A
C827        C828   1.392       .  A
C827        N834   1.437       .  S
C828        C829   1.405       .  A
C828        H833   1.085       .  S
C829        C830   1.412       .  A
C830        N831   1.436       .  S
N831        O835   1.262       .  A
N831        O836   1.262       .  A
N834        O837   1.262       .  A
N834        O838   1.263       .  A
C839        C840   1.398       .  A
C839        C844   1.394       .  A
C839        H846   1.085       .  S
C840        C841   1.420       .  A
C841        C842   1.408       .  A
C841        N848   1.447       .  S
C842        C843   1.402       .  A
C842        H847   1.084       .  S
C843        C844   1.411       .  A
C844        N845   1.435       .  S
N845        O849   1.263       .  A
N845        O850   1.261       .  A
N848        O851   1.261       .  A
N848        O852   1.263       .  A
C853        C854   1.402       .  A
C853        C858   1.410       .  A
C853        H860   1.084       .  S
C854        C855   1.420       .  A
C855        C856   1.409       .  A
C855        N862   1.442       .  S
C856        C857   1.403       .  A
C856        H861   1.084       .  S
C857        C858   1.420       .  A
C858        N859   1.441       .  S
N859        O863   1.263       .  A
N859        O864   1.263       .  A
N862        O865   1.263       .  A
N862        O866   1.263       .  A
C867        C868   1.398       .  A
C867        C872   1.397       .  A
C867        H874   1.085       .  S
C868        C869   1.424       .  A
C869        C870   1.417       .  A
C869        N876   1.446       .  S
C870        C871   1.405       .  A
C870        H875   1.083       .  S
C871        C872   1.412       .  A
C872        N873   1.434       .  S
N873        O877   1.260       .  A
N873        O878   1.263       .  A
N876        O879   1.262       .  A
N876        O880   1.263       .  A
C881        C882   1.403       .  A
C881        C886   1.407       .  A
C881        H888   1.084       .  S
C882        C883   1.424       .  A
C883        C884   1.415       .  A
C883        N890   1.441       .  S
C884        C885   1.402       .  A
C884        H889   1.084       .  S
C885        C886   1.421       .  A
C886        N887   1.440       .  S
N887        O891   1.263       .  A
N887        O892   1.262       .  A
N890        O893   1.263       .  A
N890        O894   1.263       .  A
C895        C896   1.400       .  A
C895        C900   1.406       .  A
C895        H902   1.085       .  S
C896        C897   1.419       .  A
C897        C898   1.410       .  A
C897        N904   1.442       .  S
C898        C899   1.401       .  A
C898        H903   1.083       .  S
C899        C900   1.421       .  A
C900        N901   1.442       .  S
N901        O905   1.263       .  A
N901        O906   1.263       .  A
N904        O907   1.263       .  A
N904        O908   1.263       .  A
C909        C910   1.407       .  A
C909        C914   1.404       .  A
C909        H916   1.083       .  S
C910        C911   1.422       .  A
C911        C912   1.402       .  A
C911        N918   1.432       .  S
C912        C913   1.399       .  A
C912        H917   1.084       .  S
C913        C914   1.417       .  A
C914        N915   1.437       .  S
N915        O919   1.262       .  A
N915        O920   1.261       .  A
N918        O921   1.262       .  A
N918        O922   1.262       .  A
C923        C924   1.408       .  A
C923        C928   1.404       .  A
C923        H930   1.083       .  S
C924        C925   1.422       .  A
C925        C926   1.405       .  A
C925        N932   1.433       .  S
C926        C927   1.400       .  A
C926        H931   1.084       .  S
C927        C928   1.417       .  A
C928        N929   1.439       .  S
N929        O933   1.263       .  A
N929        O934   1.263       .  A
N932        O935   1.262       .  A
N932        O936   1.262       .  A
C937        C938   1.403       .  A
C937        C942   1.406       .  A
C937        H944   1.084       .  S
C938        C939   1.418       .  A
C939        C940   1.402       .  A
C939        N946   1.443       .  S
C940        C941   1.404       .  A
C940        H945   1.084       .  S
C941        C942   1.417       .  A
C942        N943   1.438       .  S
N943        O947   1.263       .  A
N943        O948   1.263       .  A
N946        O949   1.260       .  A
N946        O950   1.263       .  A
C951        C952   1.400       .  A
C951        C956   1.405       .  A
C951        H958   1.084       .  S
C952        C953   1.415       .  A
C953        C954   1.404       .  A
C953        N960   1.439       .  S
C954        C955   1.404       .  A
C954        H959   1.084       .  S
C955        C956   1.419       .  A
C956        N957   1.436       .  S
N957        O961   1.262       .  A
N957        O962   1.263       .  A
N960        O963   1.262       .  A
N960        O964   1.263       .  A
