geometry optimzed in LAMMPS
_audit_creation_date              2020-12-01 
_audit_creation_method            'lammps2cif' 
_symmetry_space_group_name_H-M    'P1' 
_symmetry_Int_Tables_number       1 
_symmetry_cell_setting            triclinic 
loop_ 
_symmetry_equiv_pos_as_xyz 
  x,y,z 
_cell_length_a                    25.52181299 
_cell_length_b                    25.50739113987665 
_cell_length_c                    89.29975477566694 
_cell_angle_alpha                 90.15556325390271 
_cell_angle_beta                  89.9685342761295 
_cell_angle_gamma                 90.62274469225588 
loop_ 
_atom_site_label 
_atom_site_type_symbol 
_atom_site_fract_x 
_atom_site_fract_y 
_atom_site_fract_z 
_atom_site_charge 
C1          C  0.49487668  0.99917748  0.24870432    -0.02100
N2          N  0.08322117  0.49842850  0.00155515    -0.36200
N3          N  0.00565311  0.50225126  0.97785785    -0.56800
N4          N  0.92243632  0.49456863  0.00009018    -0.36200
N5          N  0.00036095  0.49540245  0.02377479    -0.56800
C6          C  0.11370220  0.51315407  0.98989121     0.27400
C7          C  0.11086152  0.50811284  0.01418061     0.27400
C8          C  0.89399226  0.50466716  0.98767546     0.27400
C9          C  0.89139707  0.50377097  0.01209283     0.27400
C10         C  0.04934716  0.49741839  0.96942456     0.36000
C11         C  0.96456095  0.49386430  0.96858914     0.36000
C12         C  0.04168097  0.48534084  0.03271508     0.36000
C13         C  0.95696604  0.48641264  0.03207622     0.36000
C14         C  0.16142977  0.53203670  0.99514654    -0.21500
C15         C  0.15962128  0.52888937  0.01050726    -0.21500
C16         C  0.84384491  0.51933489  0.99181747    -0.21500
C17         C  0.84229302  0.51902796  0.00723152    -0.21500
C18         C  0.03596781  0.48648131  0.95469495    -0.22600
C19         C  0.98222413  0.48435758  0.95415685    -0.22600
C20         C  0.02445254  0.46979265  0.04676347    -0.22600
C21         C  0.97072123  0.47094258  0.04639622    -0.22600
C22         C  0.10098090  0.50648566  0.97462165    -0.17900
C23         C  0.09452464  0.49531781  0.02884443    -0.17900
C24         C  0.90526148  0.49588840  0.02726605    -0.17900
C25         C  0.91131066  0.49849149  0.97271692    -0.17900
H26         H  0.19438309  0.54599026  0.98858294     0.15000
H27         H  0.19090211  0.53997057  0.01809977     0.15000
H28         H  0.81162549  0.52912322  0.98450084     0.15000
H29         H  0.80860777  0.52833636  0.01407079     0.15000
H30         H  0.06215614  0.48136205  0.94527705     0.13300
H31         H  0.95883782  0.47733801  0.94422963     0.13300
H32         H  0.04812236  0.46010740  0.05640031     0.13300
H33         H  0.94476297  0.46200201  0.05565515     0.13300
H34         H  0.04844326  0.47697809  0.00087769     0.26500
H35         H  0.95894101  0.47704176  0.00027416     0.26500
C36         C  0.50332592  0.99804036  0.75101329    -0.02100
C37         C  0.00040781  0.49968122  0.75114204    -0.02100
N38         N  0.47435898  0.91709860  0.00151150    -0.36200
N39         N  0.47880676  0.99503720  0.97805211    -0.56800
N40         N  0.46605871  0.07831221  0.99991489    -0.36200
N41         N  0.46415751  0.00024746  0.02339341    -0.56800
C42         C  0.49329486  0.88813295  0.99006840     0.27400
C43         C  0.48436851  0.89079281  0.01428259     0.27400
C44         C  0.48059097  0.10614495  0.98770547     0.27400
C45         C  0.47536999  0.10884272  0.01206489     0.27400
C46         C  0.47562698  0.95108761  0.96962392     0.36000
C47         C  0.47012688  0.03552458  0.96870431     0.36000
C48         C  0.45441034  0.95848380  0.03226351     0.36000
C49         C  0.45162781  0.04318744  0.03144671     0.36000
C50         C  0.51497838  0.84250700  0.99559707    -0.21500
C51         C  0.50928125  0.84415241  0.01091998    -0.21500
C52         C  0.49823209  0.15543336  0.99209417    -0.21500
C53         C  0.49546348  0.15694291  0.00749663    -0.21500
C54         C  0.46463500  0.96365915  0.95487293    -0.22600
C55         C  0.46143286  0.01723770  0.95427241    -0.22600
C56         C  0.43506214  0.97484280  0.04598573    -0.22600
C57         C  0.43327296  0.02860459  0.04546746    -0.22600
C58         C  0.48844072  0.90051750  0.97473823    -0.17900
C59         C  0.46904023  0.90666760  0.02878092    -0.17900
C60         C  0.46361907  0.09514680  0.02705984    -0.17900
C61         C  0.47590369  0.08879779  0.97271102    -0.17900
H62         H  0.53259876  0.81109859  0.98923933     0.15000
H63         H  0.52176076  0.81427732  0.01868702     0.15000
H64         H  0.51183107  0.18700281  0.98496225     0.15000
H65         H  0.50640155  0.18995171  0.01450952     0.15000
H66         H  0.46098672  0.93712872  0.94544026     0.13300
H67         H  0.45494219  0.04011983  0.94426960     0.13300
H68         H  0.42515119  0.95069317  0.05554730     0.13300
H69         H  0.42172258  0.05415307  0.05455885     0.13300
H70         H  0.45079947  0.94993590  0.00054788     0.26500
H71         H  0.44592209  0.04263450  0.99980651     0.26500
N72         N  0.47944714  0.61331277  0.86752024    -0.05700
N73         N  0.46310943  0.64032491  0.87923219    -0.57900
N74         N  0.53010335  0.61215396  0.83290215    -0.05400
N75         N  0.54872314  0.64439178  0.82257315    -0.60000
N76         N  0.47856558  0.61289681  0.83293532    -0.05000
N77         N  0.46119130  0.64529952  0.82262737    -0.57800
N78         N  0.53090928  0.61182031  0.86738177    -0.04700
N79         N  0.55064100  0.63764301  0.87893349    -0.60300
C80         C  0.50795787  0.65528289  0.88625559     0.96400
C81         C  0.50522965  0.66449187  0.81614208     0.96200
N82         N  0.61223822  0.46993660  0.83337979    -0.05900
N83         N  0.64311823  0.45103308  0.82283838    -0.58400
N84         N  0.61336736  0.52312305  0.86774460    -0.04000
N85         N  0.64018583  0.54087547  0.87937939    -0.59700
N86         N  0.61070543  0.47164637  0.86800118    -0.06000
N87         N  0.63536840  0.45321964  0.87983227    -0.58700
N88         N  0.61402570  0.52142183  0.83325586    -0.03700
N89         N  0.64614080  0.53821695  0.82271492    -0.59800
Mn90       Mn  0.57340820  0.56827912  0.85020907     1.18400
C91         C  0.66406717  0.49407578  0.81610518     0.98500
C92         C  0.65304360  0.49684725  0.88687901     0.99200
N93         N  0.38772254  0.52720880  0.83303959    -0.06000
N94         N  0.35618115  0.54528160  0.82256315    -0.62300
N95         N  0.38637343  0.47801122  0.86761471    -0.04800
N96         N  0.35920491  0.46122373  0.87925247    -0.63000
N97         N  0.38894830  0.52949960  0.86756822    -0.05500
N98         N  0.36375041  0.54893567  0.87920181    -0.62500
N99         N  0.38626242  0.47558250  0.83314625    -0.04400
N100        N  0.35385452  0.45768750  0.82275000    -0.63200
Mn101      Mn  0.43246713  0.57202346  0.85020076     1.10700
C102        C  0.33557534  0.50149380  0.81612615     0.99700
C103        C  0.34540496  0.50584794  0.88635443     0.99800
N104        N  0.52115001  0.38800302  0.86832318    -0.05500
N105        N  0.53829523  0.36150705  0.87996542    -0.60900
N106        N  0.47032902  0.38405343  0.83400437    -0.04800
N107        N  0.45176584  0.34861234  0.82450967    -0.57600
N108        N  0.52190094  0.38373878  0.83397805    -0.06100
N109        N  0.53940984  0.34857444  0.82440245    -0.60400
N110        N  0.46966769  0.38958096  0.86838769    -0.05100
N111        N  0.45064743  0.36436395  0.88012705    -0.57600
Mn112      Mn  0.56767791  0.42721243  0.85081816     1.20200
Mn113      Mn  0.42683787  0.43072780  0.85068091     1.10100
Cl114      Cl  0.50004707  0.49955121  0.85033021    -0.85600
C115        C  0.49397704  0.34752349  0.88728710     0.96700
C116        C  0.49536344  0.32734894  0.81846314     0.96500
N117        N  0.47023678  0.61038753  0.16899474    -0.05700
N118        N  0.45276447  0.64240394  0.17940392    -0.57900
N119        N  0.51413863  0.61229401  0.13409761    -0.05400
N120        N  0.52912042  0.64221604  0.12286277    -0.60000
N121        N  0.46273918  0.60971680  0.13486403    -0.05000
N122        N  0.44171234  0.63785045  0.12407041    -0.57800
N123        N  0.52169907  0.61306576  0.16815368    -0.04700
N124        N  0.54017075  0.64719745  0.17800317    -0.60300
C125        C  0.49676020  0.66444531  0.18508678     0.96400
C126        C  0.48369069  0.65774882  0.11662684     0.96200
N127        N  0.60538380  0.47808604  0.13180452    -0.05900
N128        N  0.63086902  0.46107041  0.11990480    -0.58400
N129        N  0.61369620  0.53035971  0.16626997    -0.04000
N130        N  0.64807110  0.54998160  0.17588285    -0.59700
N131        N  0.61561558  0.47885923  0.16616702    -0.06000
N132        N  0.65109805  0.46246442  0.17576464    -0.58700
N133        N  0.60378625  0.52961756  0.13187361    -0.03700
N134        N  0.62813670  0.54873449  0.11998554    -0.59800
Mn135      Mn  0.56449521  0.57253884  0.15016042     1.18400
C136        C  0.64411502  0.50549094  0.11253483     0.98500
C137        C  0.67102070  0.50715433  0.18180733     0.99200
N138        N  0.37951463  0.51815956  0.13649830    -0.06000
N139        N  0.35138567  0.53419856  0.12503158    -0.62300
N140        N  0.38928696  0.46820437  0.17127387    -0.04800
N141        N  0.36157997  0.44880636  0.18247981    -0.63000
N142        N  0.38594356  0.51953089  0.17102168    -0.05500
N143        N  0.35550122  0.53585124  0.18203090    -0.62500
N144        N  0.38130673  0.46671062  0.13675154    -0.04400
N145        N  0.35448593  0.44658371  0.12544321    -0.63200
Mn146      Mn  0.42327642  0.56556064  0.15287861     1.10700
C147        C  0.33591618  0.48912473  0.11825234     0.99700
C148        C  0.34057112  0.49129865  0.18922712     0.99800
N149        N  0.53157496  0.38758066  0.16811485    -0.05500
N150        N  0.55353527  0.35621983  0.17795809    -0.60900
N151        N  0.47035001  0.38518384  0.13517183    -0.04800
N152        N  0.44930482  0.35726864  0.12426036    -0.57600
N153        N  0.52159360  0.38692438  0.13383496    -0.06100
N154        N  0.53643160  0.35963990  0.12199792    -0.60400
N155        N  0.48024470  0.38573067  0.16941294    -0.05100
N156        N  0.46629153  0.35320753  0.18018759    -0.57600
Mn157      Mn  0.56982216  0.43170906  0.14997518     1.20200
Mn158      Mn  0.42923355  0.42529957  0.15328647     1.10100
Cl159      Cl  0.49676806  0.49882262  0.15164320    -0.85600
C160        C  0.51235945  0.33537337  0.18550293     0.96700
C161        C  0.49079695  0.34125217  0.11611218     0.96500
N162        N  0.97816831  0.11566558  0.66800010    -0.05700
N163        N  0.96084311  0.14951985  0.67799733    -0.57900
N164        N  0.02974213  0.11208733  0.63368939    -0.05400
N165        N  0.04843494  0.14081962  0.62257956    -0.60000
N166        N  0.97829971  0.11283693  0.63370565    -0.05000
N167        N  0.96098378  0.14231180  0.62267977    -0.57800
N168        N  0.02973615  0.11476977  0.66811887    -0.04700
N169        N  0.04842924  0.14785898  0.67823788    -0.60300
C170        C  0.00502928  0.16892885  0.68441586     0.96400
C171        C  0.00510334  0.15950971  0.61574866     0.96200
N172        N  0.11299757  0.97169936  0.63448256    -0.05900
N173        N  0.13934255  0.95269344  0.62298311    -0.58400
N174        N  0.11654744  0.02643797  0.66833555    -0.04000
N175        N  0.15294435  0.04518961  0.67743425    -0.59700
N176        N  0.11519217  0.97491272  0.66892475    -0.06000
N177        N  0.15046021  0.95797563  0.67853213    -0.58700
N178        N  0.11350610  0.02326931  0.63411021    -0.03700
N179        N  0.14003921  0.04039955  0.62239774    -0.59800
Mn180      Mn  0.07343794  0.07009019  0.65113173     1.18400
C181        C  0.15585755  0.99603433  0.61553602     0.98500
C182        C  0.17389352  0.00220559  0.68384558     0.99200
N183        N  0.89046218  0.02536861  0.63389345    -0.06000
N184        N  0.86393816  0.04215189  0.62217973    -0.62300
N185        N  0.88762665  0.97744456  0.66880796    -0.04800
N186        N  0.85464926  0.96060420  0.67915540    -0.63000
N187        N  0.88812812  0.02898857  0.66831668    -0.05500
N188        N  0.85518699  0.04822826  0.67826730    -0.62500
N189        N  0.88905282  0.97382433  0.63447587    -0.04400
N190        N  0.86125179  0.95442150  0.62326954    -0.63200
Mn191      Mn  0.93261171  0.07178075  0.65101128     1.10700
C192        C  0.84620391  0.99741464  0.61568037     0.99700
C193        C  0.83507174  0.00513347  0.68505907     0.99800
N194        N  0.02439299  0.88723164  0.66985980    -0.05500
N195        N  0.04041123  0.85483693  0.68042849    -0.60900
N196        N  0.97351403  0.88557758  0.63525917    -0.04800
N197        N  0.95499273  0.85724477  0.62400426    -0.57600
N198        N  0.02498739  0.88493794  0.63531973    -0.06100
N199        N  0.04255574  0.85628405  0.62409518    -0.60400
N200        N  0.97290067  0.88901060  0.66976783    -0.05100
N201        N  0.95316382  0.85853844  0.68031156    -0.57600
Mn202      Mn  0.07058448  0.92846568  0.65226769     1.20200
Mn203      Mn  0.92970952  0.93044840  0.65214374     1.10100
Cl204      Cl  0.00161952  0.00020055  0.65173789    -0.85600
C205        C  0.99547389  0.83724595  0.68697482     0.96700
C206        C  0.99850632  0.83911759  0.61711569     0.96500
N207        N  0.96971996  0.88838306  0.33102138    -0.05700
N208        N  0.95107264  0.85808476  0.32023118    -0.57900
N209        N  0.02025735  0.88583294  0.36573319    -0.05400
N210        N  0.03710646  0.85749386  0.37705533    -0.60000
N211        N  0.96877835  0.88626156  0.36548791    -0.05000
N212        N  0.94949803  0.85826764  0.37665600    -0.57800
N213        N  0.02125309  0.88710556  0.33124591    -0.04700
N214        N  0.03854487  0.85572089  0.32059396    -0.60300
C215        C  0.99435985  0.83822415  0.31370794     0.96400
C216        C  0.99254257  0.84052673  0.38377696     0.96200
N217        N  0.11043714  0.02344091  0.36665765    -0.05900
N218        N  0.13860990  0.04159109  0.37795569    -0.58400
N219        N  0.11169731  0.97282660  0.33213023    -0.04000
N220        N  0.14493657  0.95473515  0.32209081    -0.59700
N221        N  0.11285147  0.02437784  0.33233099    -0.06000
N222        N  0.14710685  0.04239313  0.32247618    -0.58700
N223        N  0.10971913  0.97190254  0.36663973    -0.03700
N224        N  0.13745347  0.95398029  0.37801587    -0.59800
Mn225      Mn  0.06680813  0.92812270  0.34890547     1.18400
C226        C  0.15519167  0.99799137  0.38503680     0.98500
C227        C  0.16648060  0.99852998  0.31606492     0.99200
N228        N  0.88394667  0.97337228  0.36585996    -0.06000
N229        N  0.85621588  0.95401676  0.37706093    -0.62300
N230        N  0.88213349  0.02698682  0.33197452    -0.04800
N231        N  0.84501349  0.04495920  0.32310289    -0.63000
N232        N  0.88216588  0.97543271  0.33162344    -0.05500
N233        N  0.84557325  0.95771261  0.32241575    -0.62500
N234        N  0.88481729  0.02494701  0.36634251    -0.04400
N235        N  0.85776239  0.04181141  0.37799767    -0.63200
Mn236      Mn  0.92532222  0.92980357  0.34838457     1.10700
C237        C  0.84043875  0.99705390  0.38455145     0.99700
C238        C  0.82244080  0.00136079  0.31707754     0.99800
N239        N  0.02637984  0.11226679  0.33222886    -0.05500
N240        N  0.04649334  0.14368748  0.32196702    -0.60900
N241        N  0.97342523  0.11165732  0.36652855    -0.04800
N242        N  0.95597977  0.13985874  0.37787143    -0.57600
N243        N  0.02487758  0.11043734  0.36667263    -0.06100
N244        N  0.04338805  0.13751735  0.37813955    -0.60400
N245        N  0.97480707  0.11378077  0.33197286    -0.05100
N246        N  0.95910917  0.14667845  0.32149145    -0.57600
Mn247      Mn  0.06953739  0.06869239  0.34941804     1.20200
Mn248      Mn  0.92768994  0.07073236  0.34910738     1.10100
Cl249      Cl  0.99728108  0.99941924  0.34879374    -0.85600
C250        C  0.00432166  0.16496321  0.31526342     0.96700
C251        C  0.00007611  0.15581995  0.38506262     0.96500
N252        N  0.00916686  0.58419040  0.49983437    -0.36200
N253        N  0.00769387  0.50324345  0.47723413    -0.56800
N254        N  0.01307270  0.42308384  0.50009918    -0.36200
N255        N  0.01242113  0.50410174  0.52269231    -0.56800
C256        C  0.99349337  0.61170332  0.48777211     0.27400
C257        C  0.99639351  0.61234859  0.51209418     0.27400
C258        C  0.99867882  0.39447091  0.48798736     0.27400
C259        C  0.00032599  0.39487820  0.51240479     0.27400
C260        C  0.01594125  0.54579089  0.46855573     0.36000
C261        C  0.01962652  0.46117495  0.46875738     0.36000
C262        C  0.02272956  0.54711305  0.53107390     0.36000
C263        C  0.02390052  0.46227243  0.53128047     0.36000
C264        C  0.97095898  0.65824307  0.49237695    -0.21500
C265        C  0.97269851  0.65861477  0.50779470    -0.21500
C266        C  0.97670890  0.34726478  0.49262319    -0.21500
C267        C  0.97778431  0.34751044  0.50807584    -0.21500
C268        C  0.03339601  0.53086623  0.45450580    -0.22600
C269        C  0.03617216  0.47712687  0.45466777    -0.22600
C270        C  0.04134599  0.53261979  0.54502589    -0.22600
C271        C  0.04213065  0.47875426  0.54515362    -0.22600
C272        C  0.00282027  0.59727107  0.47277274    -0.17900
C273        C  0.00893480  0.59856199  0.52694136    -0.17900
C274        C  0.01187786  0.40983823  0.52732486    -0.17900
C275        C  0.00852851  0.40886402  0.47294292    -0.17900
H276        H  0.95553573  0.68896297  0.48535686     0.15000
H277        H  0.95883068  0.68970168  0.51500264     0.15000
H278        H  0.96211712  0.31569187  0.48560201     0.15000
H279        H  0.96414354  0.31618307  0.51529155     0.15000
H280        H  0.04206756  0.55598564  0.44505271     0.13300
H281        H  0.04711362  0.45250875  0.44530853     0.13300
H282        H  0.05155789  0.55815415  0.55430076     0.13300
H283        H  0.05313273  0.45448937  0.55454116     0.13300
H284        H  0.03276810  0.55117970  0.49966624     0.26500
H285        H  0.03584913  0.45718065  0.49991885     0.26500
N286        N  0.58189484  0.99162840  0.50037635    -0.36200
N287        N  0.50310626  0.99854270  0.52360472    -0.56800
N288        N  0.42129049  0.00514173  0.50089409    -0.36200
N289        N  0.50002284  0.00309261  0.47768152    -0.56800
C290        C  0.61282076  0.00003609  0.51246462     0.27400
C291        C  0.61117522  0.00126545  0.48806658     0.27400
C292        C  0.39382440  0.01680381  0.51338788     0.27400
C293        C  0.39228752  0.01979306  0.48895384     0.27400
C294        C  0.54506469  0.98630980  0.53208824     0.36000
C295        C  0.46045875  0.99121150  0.53234376     0.36000
C296        C  0.54103995  0.99036974  0.46887164     0.36000
C297        C  0.45661356  0.99770116  0.46910593     0.36000
C298        C  0.66273026  0.01437225  0.50777327    -0.21500
C299        C  0.66171175  0.01508920  0.49234843    -0.21500
C300        C  0.34651073  0.03901245  0.50935990    -0.21500
C301        C  0.34558586  0.04097759  0.49392644    -0.21500
C302        C  0.52910665  0.97158591  0.54631108    -0.22600
C303        C  0.47545307  0.97428476  0.54644369    -0.22600
C304        C  0.52372526  0.97732745  0.45461864    -0.22600
C305        C  0.47022447  0.98169694  0.45478576    -0.22600
C306        C  0.59778513  0.99242746  0.52755456    -0.17900
C307        C  0.59424428  0.99477824  0.47309622    -0.17900
C308        C  0.40526871  0.01051570  0.47374142    -0.17900
C309        C  0.40867402  0.00411338  0.52822343    -0.17900
H310        H  0.69647528  0.02295492  0.51473159     0.15000
H311        H  0.69453987  0.02433132  0.48510817     0.15000
H312        H  0.31550415  0.05164938  0.51676748     0.15000
H313        H  0.31373969  0.05534972  0.48713153     0.15000
H314        H  0.55361143  0.96061047  0.55565792     0.13300
H315        H  0.45045360  0.96590995  0.55595414     0.13300
H316        H  0.54726621  0.96637033  0.44504509     0.13300
H317        H  0.44442179  0.97456930  0.44536800     0.13300
H318        H  0.54435323  0.97468179  0.50042679     0.26500
H319        H  0.45496766  0.98213301  0.50053581     0.26500
C320        C  0.99753622  0.50053417  0.25022267    -0.02100
C321        C  0.01137809  0.69739230  0.30075042    -0.05100
C322        C  0.98545020  0.69782462  0.28679869     0.09100
C323        C  0.96214096  0.74446306  0.28170302    -0.02500
C324        C  0.96523306  0.79054034  0.29047670    -0.00700
C325        C  0.99220941  0.79031062  0.30428782    -0.04300
C326        C  0.01482560  0.74340041  0.30945495     0.02700
C327        C  0.98699839  0.65026356  0.27693218     0.09500
C328        C  0.93588246  0.74515538  0.26730420     0.35400
C329        C  0.04048443  0.74183803  0.32394916     0.38800
C330        C  0.94398173  0.61601881  0.27585412    -0.04700
C331        C  0.94723213  0.56904290  0.26736838     0.02400
C332        C  0.99453793  0.55505232  0.25937870    -0.04300
C333        C  0.03483042  0.59580126  0.25913632    -0.00500
C334        C  0.03194763  0.64037705  0.26852179    -0.03100
C335        C  0.89661982  0.62839578  0.28413916     0.36200
C336        C  0.07630882  0.59917081  0.24808790     0.39800
C337        C  0.90193170  0.53440127  0.26831448     0.38900
C338        C  0.07497261  0.67840861  0.26904253     0.35800
C339        C  0.03515114  0.64966891  0.30615113     0.36500
C340        C  0.94190872  0.83858245  0.28511088     0.39800
N341        N  0.86414787  0.50961593  0.27000290    -0.38300
N342        N  0.85893785  0.63832990  0.29072923    -0.39900
N343        N  0.10891849  0.60525988  0.23923886    -0.37600
N344        N  0.10901697  0.70872010  0.26945109    -0.40000
N345        N  0.91487552  0.74559419  0.25582309    -0.39800
N346        N  0.92337816  0.87695547  0.28083725    -0.37400
N347        N  0.06093972  0.74050397  0.33550341    -0.38500
N348        N  0.05464708  0.61220737  0.31070093    -0.40100
C349        C  0.04611011  0.29476172  0.29695791    -0.05100
C350        C  0.00510755  0.30209983  0.28657565     0.09100
C351        C  0.96707706  0.26189480  0.28466699    -0.02500
C352        C  0.96960355  0.21554349  0.29325202    -0.00700
C353        C  0.00721077  0.21058751  0.30474995    -0.04300
C354        C  0.04661131  0.24997566  0.30623932     0.02700
C355        C  0.00255834  0.35212879  0.27763838     0.09500
C356        C  0.92501926  0.26802821  0.27392647     0.35400
C357        C  0.08762378  0.24536167  0.31738167     0.38800
C358        C  0.01277532  0.35198462  0.26223468    -0.04700
C359        C  0.00771602  0.39830622  0.25367234     0.02400
C360        C  0.99849029  0.44889813  0.26058124    -0.04300
C361        C  0.99400524  0.44797361  0.27675303    -0.00500
C362        C  0.99207087  0.39997363  0.28476477    -0.03100
C363        C  0.02841154  0.30329159  0.25508929     0.36200
C364        C  0.99609831  0.49413811  0.28615431     0.39800
C365        C  0.00766778  0.39081550  0.23756850     0.38900
C366        C  0.98096204  0.39981125  0.30076362     0.35800
C367        C  0.08788740  0.33365854  0.29809607     0.36500
C368        C  0.93666096  0.17098229  0.28931136     0.39800
N369        N  0.00694984  0.38036567  0.22495215    -0.38300
N370        N  0.04101793  0.26454757  0.24943314    -0.39900
N371        N  0.99850082  0.52867667  0.29455793    -0.37600
N372        N  0.97254472  0.39971134  0.31350009    -0.40000
N373        N  0.89124731  0.27220580  0.26538584    -0.39800
N374        N  0.91194795  0.13468553  0.28582173    -0.37400
N375        N  0.12066273  0.24186956  0.32618593    -0.38500
N376        N  0.12102516  0.36484842  0.29896547    -0.40100
C377        C  0.04335326  0.26332427  0.41245698    -0.05100
C378        C  0.00325364  0.26072514  0.42329893     0.09100
C379        C  0.96217401  0.22380012  0.42166920    -0.02500
C380        C  0.96035322  0.19039596  0.40906718    -0.00700
C381        C  0.00110862  0.19196984  0.39825945    -0.04300
C382        C  0.04287775  0.22863111  0.40013217     0.02700
C383        C  0.00362601  0.29764466  0.43634539     0.09500
C384        C  0.92182291  0.22009291  0.43309925     0.35400
C385        C  0.08477134  0.23240495  0.38917492     0.38800
C386        C  0.96739433  0.33899298  0.43696506    -0.04700
C387        C  0.96673659  0.37299338  0.44940664     0.02400
C388        C  0.00479474  0.36826024  0.46083327    -0.04300
C389        C  0.04130208  0.32702024  0.46014333    -0.00500
C390        C  0.03984214  0.29108712  0.44811649    -0.03100
C391        C  0.93163056  0.34732492  0.42458980     0.36200
C392        C  0.08127091  0.32234340  0.47158622     0.39800
C393        C  0.92709231  0.41323306  0.45038555     0.38900
C394        C  0.07575929  0.24740644  0.44776569     0.35800
C395        C  0.08476936  0.30248620  0.41386921     0.36500
C396        C  0.91621456  0.15459798  0.40741287     0.39800
N397        N  0.89559567  0.44542543  0.45115622    -0.38300
N398        N  0.90331255  0.35408592  0.41468062    -0.39900
N399        N  0.11314580  0.31860909  0.48072180    -0.37600
N400        N  0.10428533  0.21246545  0.44741144    -0.40000
N401        N  0.88980761  0.21736966  0.44225515    -0.39800
N402        N  0.88020537  0.12700123  0.40615278    -0.37400
N403        N  0.11837402  0.23539522  0.38049776    -0.38500
N404        N  0.11781660  0.33367867  0.41497928    -0.40100
C405        C  0.95115205  0.67198117  0.43915478    -0.05100
C406        C  0.99233698  0.70833876  0.43666289     0.09100
C407        C  0.03492952  0.71099421  0.44673090    -0.02500
C408        C  0.03789088  0.67534509  0.45871078    -0.00700
C409        C  0.99775142  0.63762530  0.46083729    -0.04300
C410        C  0.95357772  0.63712687  0.45133177     0.02700
C411        C  0.99196642  0.74235150  0.42306957     0.09500
C412        C  0.07578139  0.75030794  0.44467627     0.35400
C413        C  0.91049232  0.60096597  0.45417923     0.38800
C414        C  0.95720357  0.78476754  0.42209102    -0.04700
C415        C  0.95580800  0.81557178  0.40902010     0.02400
C416        C  0.99127359  0.80596432  0.39715167    -0.04300
C417        C  0.02590690  0.76317942  0.39815376    -0.00500
C418        C  0.02570772  0.73113779  0.41098137    -0.03100
C419        C  0.92302919  0.79682639  0.43460664     0.36200
C420        C  0.05992686  0.75021986  0.38568166     0.39800
C421        C  0.91744140  0.85679110  0.40787205     0.38900
C422        C  0.05959667  0.68587546  0.41166186     0.35800
C423        C  0.90664124  0.67003641  0.42906046     0.36500
C424        C  0.08261280  0.67678728  0.46872220     0.39800
N425        N  0.88585063  0.88877545  0.40697434    -0.38300
N426        N  0.89576001  0.80635996  0.44458564    -0.39900
N427        N  0.08691024  0.73971960  0.37571862    -0.37600
N428        N  0.08651665  0.64971995  0.41223506    -0.40000
N429        N  0.10827063  0.78176087  0.44301260    -0.39800
N430        N  0.11815507  0.67787360  0.47676240    -0.37400
N431        N  0.87590965  0.57242362  0.45651097    -0.38500
N432        N  0.87105064  0.66887907  0.42103645    -0.40100
C433        C  0.21606518  0.04222656  0.42222529    -0.05100
C434        C  0.25586372  0.00495077  0.42424928     0.09100
C435        C  0.26172842  0.96434055  0.41360942    -0.02500
C436        C  0.22871264  0.96151554  0.40090604    -0.00700
C437        C  0.18888947  0.99908619  0.39877691    -0.04300
C438        C  0.18241418  0.03904739  0.40969297     0.02700
C439        C  0.29196214  0.00869355  0.43753724     0.09500
C440        C  0.30248989  0.92579247  0.41565218     0.35400
C441        C  0.13995010  0.07616148  0.40843522     0.38800
C442        C  0.28735468  0.97248007  0.44942481    -0.04700
C443        C  0.32334899  0.97395228  0.46143691     0.02400
C444        C  0.36313011  0.01294140  0.46198714    -0.04300
C445        C  0.36569534  0.05111216  0.45052646    -0.00500
C446        C  0.33136385  0.04799784  0.43814362    -0.03100
C447        C  0.24612927  0.93290740  0.44911432     0.36200
C448        C  0.40428763  0.09318826  0.45137355     0.39800
C449        C  0.32056091  0.93415582  0.47298561     0.38900
C450        C  0.33789179  0.08394233  0.42570295     0.35800
C451        C  0.20974771  0.08410559  0.43309046     0.36500
C452        C  0.23743000  0.92095200  0.38979323     0.39800
N453        N  0.31845659  0.90250154  0.48223119    -0.38300
N454        N  0.21334461  0.90122199  0.44881349    -0.39900
N455        N  0.43499125  0.12683612  0.45204678    -0.37600
N456        N  0.34317936  0.11229520  0.41570613    -0.40000
N457        N  0.33481840  0.89493205  0.41738784    -0.39800
N458        N  0.24467034  0.88853670  0.38095931    -0.37400
N459        N  0.10605874  0.10577537  0.40757756    -0.38500
N460        N  0.20494689  0.11779767  0.44167079    -0.40100
C461        C  0.67673281  0.03801536  0.43975062    -0.05100
C462        C  0.70434048  0.99175030  0.43645933     0.09100
C463        C  0.69750170  0.94704313  0.44556733    -0.02500
C464        C  0.66282908  0.94853867  0.45786263    -0.00700
C465        C  0.63433450  0.99446352  0.46092972    -0.04300
C466        C  0.64156875  0.03927845  0.45189335     0.02700
C467        C  0.73986874  0.99025941  0.42316776     0.09500
C468        C  0.72528605  0.89926165  0.44206248     0.35400
C469        C  0.61212468  0.08641934  0.45498949     0.38800
C470        C  0.79433940  0.99787245  0.42498051    -0.04700
C471        C  0.82728141  0.00067350  0.41231988     0.02400
C472        C  0.80591314  0.99502317  0.39782588    -0.04300
C473        C  0.75172131  0.98543267  0.39603959    -0.00500
C474        C  0.71866567  0.98358735  0.40868186    -0.03100
C475        C  0.81632530  0.00282040  0.43989353     0.36200
C476        C  0.72996282  0.97779053  0.38117623     0.39800
C477        C  0.88331498  0.00821209  0.41421345     0.38900
C478        C  0.66272204  0.97520119  0.40683330     0.35800
C479        C  0.68421173  0.08414405  0.43049429     0.36500
C480        C  0.65541786  0.90255522  0.46717516     0.39800
N481        N  0.92804724  0.01400314  0.41571579    -0.38300
N482        N  0.83374182  0.00637830  0.45181960    -0.39900
N483        N  0.71265482  0.97152484  0.36932097    -0.37600
N484        N  0.61804464  0.96872991  0.40541545    -0.40000
N485        N  0.74740672  0.86111550  0.43924169    -0.39800
N486        N  0.64943349  0.86601899  0.47466480    -0.37400
N487        N  0.58835810  0.12385920  0.45744189    -0.38500
N488        N  0.69025207  0.12079600  0.42305616    -0.40100
C489        C  0.33299784  0.04090605  0.56351077    -0.05100
C490        C  0.29489527  0.00047806  0.56405667     0.09100
C491        C  0.29275234  0.96241990  0.55257296    -0.02500
C492        C  0.32958259  0.96392156  0.54080119    -0.00700
C493        C  0.36777819  0.00439200  0.54023140    -0.04300
C494        C  0.36901194  0.04320837  0.55156161     0.02700
C495        C  0.25776601  0.99755954  0.57697876     0.09500
C496        C  0.25276226  0.92161143  0.55294229     0.35400
C497        C  0.40819648  0.08479620  0.55111041     0.38800
C498        C  0.21346834  0.03007144  0.57738112    -0.04700
C499        C  0.17970545  0.02912005  0.58988446     0.02400
C500        C  0.19015560  0.99551940  0.60209726    -0.04300
C501        C  0.23472545  0.96306803  0.60166657    -0.00500
C502        C  0.26837725  0.96413856  0.58914026    -0.03100
C503        C  0.20331693  0.06523341  0.56499568     0.36200
C504        C  0.24786554  0.93084872  0.61446831     0.39800
C505        C  0.13394188  0.06243261  0.59003537     0.38900
C506        C  0.31508745  0.93222896  0.58896823     0.35800
C507        C  0.33556098  0.07958325  0.57543721     0.36500
C508        C  0.32951463  0.92275471  0.52956192     0.39800
N509        N  0.09758742  0.08917501  0.59009970    -0.38300
N510        N  0.19558288  0.09346101  0.55513617    -0.39900
N511        N  0.25843345  0.90543131  0.62472738    -0.37600
N512        N  0.35245868  0.90694035  0.58885739    -0.40000
N513        N  0.22074768  0.88914444  0.55320984    -0.39800
N514        N  0.32982009  0.88987325  0.52060874    -0.37400
N515        N  0.43972082  0.11773502  0.55082773    -0.38500
N516        N  0.33736765  0.11025683  0.58500032    -0.40100
C517        C  0.79892330  0.00579029  0.57547934    -0.05100
C518        C  0.74537390  0.99264478  0.57712376     0.09100
C519        C  0.72528195  0.97999120  0.59141257    -0.02500
C520        C  0.75827587  0.98194655  0.60406438    -0.00700
C521        C  0.81166267  0.99564362  0.60242303    -0.04300
C522        C  0.83218388  0.00657044  0.58808418     0.02700
C523        C  0.70969768  0.99322636  0.56384994     0.09500
C524        C  0.67065267  0.96483887  0.59304905     0.35400
C525        C  0.88785838  0.01674206  0.58625187     0.38800
C526        C  0.70361087  0.94812242  0.55480264    -0.04700
C527        C  0.66871364  0.94846095  0.54254054     0.02400
C528        C  0.63894839  0.99354672  0.53948747    -0.04300
C529        C  0.64596132  0.03899116  0.54836974    -0.00500
C530        C  0.68138207  0.03887904  0.56047553    -0.03100
C531        C  0.73255439  0.90114151  0.55834323     0.36200
C532        C  0.61644393  0.08580707  0.54505074     0.39800
C533        C  0.66291956  0.90232065  0.53315218     0.38900
C534        C  0.68844043  0.08554945  0.56960107     0.35800
C535        C  0.81965278  0.01854890  0.56080293     0.36500
C536        C  0.73721264  0.97066783  0.61882066     0.39800
N537        N  0.65853533  0.86563259  0.52558584    -0.38300
N538        N  0.75561064  0.86370810  0.56125842    -0.39900
N539        N  0.59283048  0.12310064  0.54237365    -0.37600
N540        N  0.69425019  0.12268685  0.57691189    -0.40000
N541        N  0.62711156  0.95251189  0.59432738    -0.39800
N542        N  0.72062165  0.96183652  0.63062325    -0.37400
N543        N  0.93233694  0.02457222  0.58482735    -0.38500
N544        N  0.83613562  0.02879958  0.54908445    -0.40100
C545        C  0.96723277  0.22438949  0.57874270    -0.05100
C546        C  0.00795345  0.26162219  0.57692794     0.09100
C547        C  0.04743107  0.26595393  0.58792745    -0.02500
C548        C  0.04708601  0.23227877  0.60046166    -0.00700
C549        C  0.00585514  0.19513826  0.60244476    -0.04300
C550        C  0.96511614  0.19263689  0.59164479     0.02700
C551        C  0.00778104  0.29818014  0.56379483     0.09500
C552        C  0.08765260  0.30632081  0.58653639     0.35400
C553        C  0.91995816  0.15852901  0.59380171     0.38800
C554        C  0.97053158  0.33861883  0.56305618    -0.04700
C555        C  0.97011083  0.37304812  0.55074114     0.02400
C556        C  0.00904989  0.36957942  0.53952003    -0.04300
C557        C  0.04647598  0.32922421  0.54029113    -0.00500
C558        C  0.04501776  0.29288582  0.55219270    -0.03100
C559        C  0.93324567  0.34544490  0.57516289     0.36200
C560        C  0.08724345  0.32586656  0.52902393     0.39800
C561        C  0.92919999  0.41181192  0.54955320     0.38900
C562        C  0.08182475  0.24997960  0.55254274     0.35800
C563        C  0.92718804  0.21891196  0.56728741     0.36500
C564        C  0.08793838  0.23822067  0.61165253     0.39800
N565        N  0.89624993  0.44241373  0.54861013    -0.38300
N566        N  0.90365733  0.35081816  0.58485709    -0.39900
N567        N  0.11979405  0.32333905  0.52003220    -0.37600
N568        N  0.11104699  0.21562132  0.55285319    -0.40000
N569        N  0.11953760  0.33867922  0.58541009    -0.39800
N570        N  0.12063029  0.24323842  0.62053694    -0.37400
N571        N  0.88299326  0.13264571  0.59559178    -0.38500
N572        N  0.89523141  0.21453229  0.55816714    -0.40100
C573        C  0.96180358  0.78297055  0.57873689    -0.05100
C574        C  0.99897988  0.74291764  0.57711172     0.09100
C575        C  0.03583765  0.73419068  0.58856197    -0.02500
C576        C  0.03557689  0.76533163  0.60163338    -0.00700
C577        C  0.99823351  0.80564834  0.60337728    -0.04300
C578        C  0.96116920  0.81407992  0.59182629     0.02700
C579        C  0.99884074  0.70886035  0.56346573     0.09500
C580        C  0.07384304  0.69262974  0.58688882     0.35400
C581        C  0.92308185  0.85562838  0.59307629     0.38800
C582        C  0.03745142  0.71592942  0.55229701    -0.04700
C583        C  0.04035723  0.68056460  0.54017053     0.02400
C584        C  0.00379862  0.63880391  0.53899798    -0.04300
C585        C  0.96297383  0.63410532  0.54959865    -0.00500
C586        C  0.96124106  0.66820962  0.56199419    -0.03100
C587        C  0.07447159  0.75930248  0.55342524     0.36200
C588        C  0.92243595  0.59440098  0.54761720     0.39800
C589        C  0.08126218  0.68669277  0.52900926     0.38900
C590        C  0.92157414  0.66063874  0.57344475     0.35800
C591        C  0.92454067  0.79247590  0.56680008     0.36500
C592        C  0.07277894  0.75427422  0.61346195     0.39800
N593        N  0.11369099  0.69168204  0.52004547    -0.38300
N594        N  0.10390137  0.79399179  0.55436297    -0.39900
N595        N  0.88991587  0.56300992  0.54590374    -0.37600
N596        N  0.88997540  0.65445883  0.58258793    -0.40000
N597        N  0.10414455  0.65956796  0.58544265    -0.39800
N598        N  0.10256179  0.74518887  0.62284807    -0.37400
N599        N  0.89235749  0.88851305  0.59394485    -0.38500
N600        N  0.89485415  0.79996365  0.55727072    -0.40100
C601        C  0.24046670  0.53368157  0.21877891    -0.05100
C602        C  0.20614291  0.48993161  0.21912043     0.09100
C603        C  0.21964795  0.44410558  0.21122812    -0.02500
C604        C  0.26464175  0.44330049  0.20201840    -0.00700
C605        C  0.29698363  0.48882465  0.20056803    -0.04300
C606        C  0.28571046  0.53312333  0.20962641     0.02700
C607        C  0.15384631  0.49268368  0.22687094     0.09500
C608        C  0.18613912  0.39789518  0.21235688     0.35400
C609        C  0.32090488  0.57824054  0.20978689     0.38800
C610        C  0.10802095  0.49775215  0.21835361    -0.04700
C611        C  0.05782938  0.49547028  0.22515350     0.02400
C612        C  0.05209926  0.49610706  0.24128361    -0.04300
C613        C  0.10049265  0.49050421  0.24964043    -0.00500
C614        C  0.14978004  0.48698876  0.24240509    -0.03100
C615        C  0.11290138  0.50459353  0.20223404     0.36200
C616        C  0.10226689  0.49342166  0.26586454     0.39800
C617        C  0.01480554  0.48752532  0.21479309     0.38900
C618        C  0.19722887  0.47899871  0.25106824     0.35800
C619        C  0.22929944  0.57970882  0.22773615     0.36500
C620        C  0.27582908  0.39565694  0.19376513     0.39800
N621        N  0.98267032  0.48004488  0.20586497    -0.38300
N622        N  0.11705412  0.51016988  0.18943025    -0.39900
N623        N  0.10762119  0.49640427  0.27870813    -0.37600
N624        N  0.23496260  0.47269070  0.25798471    -0.40000
N625        N  0.15924895  0.36121747  0.21326795    -0.39800
N626        N  0.28444111  0.35737286  0.18726845    -0.37400
N627        N  0.34884816  0.61429232  0.20998245    -0.38500
N628        N  0.22187068  0.61680509  0.23488184    -0.40100
C629        C  0.86044556  0.46616658  0.23021698    -0.05100
C630        C  0.85525979  0.50821299  0.22033448     0.09100
C631        C  0.89286940  0.54844210  0.22042038    -0.02500
C632        C  0.93691904  0.54631115  0.23004789    -0.00700
C633        C  0.94628137  0.50166168  0.23965944    -0.04300
C634        C  0.90388323  0.46306040  0.24005060     0.02700
C635        C  0.80903992  0.51029632  0.20995575     0.09500
C636        C  0.88684620  0.59181023  0.21002261     0.35400
C637        C  0.89821860  0.42293974  0.25143672     0.38800
C638        C  0.76729017  0.54474560  0.21287002    -0.04700
C639        C  0.72288454  0.54488067  0.20343567     0.02400
C640        C  0.71908435  0.50924051  0.19129214    -0.04300
C641        C  0.76162687  0.47561050  0.18821973    -0.00500
C642        C  0.80645572  0.47651976  0.19744183    -0.03100
C643        C  0.76977382  0.57948596  0.22575209     0.36200
C644        C  0.76048197  0.44121097  0.17524875     0.39800
C645        C  0.68080974  0.58118485  0.20645366     0.38900
C646        C  0.85022178  0.44263749  0.19404209     0.35800
C647        C  0.81881377  0.42662206  0.23065420     0.36500
C648        C  0.97319721  0.59017656  0.22878565     0.39800
N649        N  0.64759101  0.61059206  0.20882111    -0.38300
N650        N  0.77198894  0.60723783  0.23601265    -0.39900
N651        N  0.75964810  0.41377108  0.16490547    -0.37600
N652        N  0.88503514  0.41552826  0.19131621    -0.40000
N653        N  0.88197829  0.62621568  0.20173479    -0.39800
N654        N  0.99882756  0.62709526  0.22663389    -0.37400
N655        N  0.89044501  0.39111357  0.26041039    -0.38500
N656        N  0.78561968  0.39537112  0.23099480    -0.40100
C657        C  0.43964284  0.23908810  0.08816746    -0.05100
C658        C  0.47617338  0.24421967  0.07642004     0.09100
C659        C  0.51701177  0.28169672  0.07751237    -0.02500
C660        C  0.52281877  0.31243143  0.09057593    -0.00700
C661        C  0.48614225  0.30761534  0.10244565    -0.04300
C662        C  0.44407165  0.27096309  0.10103654     0.02700
C663        C  0.47378186  0.20761447  0.06331736     0.09500
C664        C  0.55284838  0.28888203  0.06504413     0.35400
C665        C  0.40593393  0.26424440  0.11297030     0.38800
C666        C  0.43561702  0.21376396  0.05203550    -0.04700
C667        C  0.43244172  0.17760446  0.04005827     0.02400
C668        C  0.46843234  0.13597669  0.03910008    -0.04300
C669        C  0.50820126  0.13163125  0.05003457    -0.00500
C670        C  0.50981972  0.16623877  0.06232074    -0.03100
C671        C  0.39944517  0.25711132  0.05286176     0.36200
C672        C  0.54801615  0.09183998  0.04854533     0.39800
C673        C  0.39200470  0.18303360  0.02878868     0.38900
C674        C  0.54780895  0.15850297  0.07417990     0.35800
C675        C  0.39784050  0.20019372  0.08710030     0.36500
C676        C  0.56649508  0.34917197  0.09156902     0.39800
N677        N  0.35997095  0.18758527  0.01973171    -0.38300
N678        N  0.37061849  0.29172877  0.05358266    -0.39900
N679        N  0.58008436  0.06041829  0.04733042    -0.37600
N680        N  0.57785474  0.15223956  0.08369248    -0.40000
N681        N  0.58120030  0.29477078  0.05505744    -0.39800
N682        N  0.60179591  0.37792902  0.09231338    -0.37400
N683        N  0.37526112  0.25889840  0.12241342    -0.38500
N684        N  0.36442921  0.16929195  0.08624990    -0.40100
C685        C  0.43717244  0.79061950  0.05407622    -0.05100
C686        C  0.47706869  0.79538264  0.06494990     0.09100
C687        C  0.51539217  0.83544222  0.06366322    -0.02500
C688        C  0.51322373  0.87113463  0.05170187    -0.00700
C689        C  0.47201841  0.86779378  0.04118597    -0.04300
C690        C  0.43410103  0.82731627  0.04236333     0.02700
C691        C  0.47789212  0.75902902  0.07801155     0.09500
C692        C  0.55706516  0.83994070  0.07466134     0.35400
C693        C  0.39148440  0.82400873  0.03165976     0.38800
C694        C  0.51671921  0.72040733  0.07904029    -0.04700
C695        C  0.51892280  0.68778159  0.09169952     0.02400
C696        C  0.48086979  0.69205601  0.10320863    -0.04300
C697        C  0.44122021  0.73020674  0.10195695    -0.00500
C698        C  0.44033053  0.76404925  0.08951037    -0.03100
C699        C  0.55467459  0.71436955  0.06705266     0.36200
C700        C  0.40258177  0.73661223  0.11372813     0.39800
C701        C  0.56084681  0.65008177  0.09273872     0.38900
C702        C  0.40141160  0.80501490  0.08865241     0.35800
C703        C  0.39954722  0.74767854  0.05494609     0.36500
C704        C  0.55373152  0.91102296  0.05012395     0.39800
N705        N  0.59508600  0.62091539  0.09357045    -0.38300
N706        N  0.58514181  0.70953750  0.05755905    -0.39900
N707        N  0.37160029  0.74192661  0.12306451    -0.37600
N708        N  0.37047905  0.83774061  0.08789865    -0.40000
N709        N  0.59054704  0.84325418  0.08335934    -0.39800
N710        N  0.58632284  0.94258316  0.04888985    -0.37400
N711        N  0.35738117  0.82143971  0.02314587    -0.38500
N712        N  0.36974926  0.71326243  0.05570610    -0.40100
C713        C  0.53309528  0.17856303  0.94268619    -0.05100
C714        C  0.48711772  0.19753277  0.93588805     0.09100
C715        C  0.43755644  0.18123427  0.94129999    -0.02500
C716        C  0.43398328  0.14735120  0.95369502    -0.00700
C717        C  0.47990684  0.12798564  0.96038444    -0.04300
C718        C  0.52947029  0.14323108  0.95476564     0.02700
C719        C  0.49055348  0.23634297  0.92339195     0.09500
C720        C  0.39025351  0.19895242  0.93396959     0.35400
C721        C  0.57663765  0.12241669  0.96145009     0.38800
C722        C  0.50498696  0.22020860  0.90883525    -0.04700
C723        C  0.50718176  0.25699323  0.89709403     0.02400
C724        C  0.49276213  0.30948160  0.89971498    -0.04300
C725        C  0.47798297  0.32559574  0.91421929    -0.00500
C726        C  0.47823206  0.28937909  0.92611130    -0.03100
C727        C  0.51708842  0.16571802  0.90590544     0.36200
C728        C  0.46340948  0.37960029  0.91696604     0.39800
C729        C  0.52367487  0.24080291  0.88224148     0.38900
C730        C  0.46682366  0.30668802  0.94124421     0.35800
C731        C  0.58406510  0.19577699  0.93731762     0.36500
C732        C  0.38307225  0.13201963  0.95954778     0.39800
N733        N  0.53711654  0.22837800  0.87038343    -0.38300
N734        N  0.52682205  0.12228911  0.90350917    -0.39900
N735        N  0.45158314  0.42259539  0.91920246    -0.37600
N736        N  0.45813754  0.32016063  0.95337055    -0.40000
N737        N  0.35261266  0.21306887  0.92806935    -0.39800
N738        N  0.34250961  0.11983027  0.96426626    -0.37400
N739        N  0.61413590  0.10572033  0.96683772    -0.38500
N740        N  0.62471389  0.20950184  0.93300907    -0.40100
C741        C  0.54846037  0.82832651  0.94164765    -0.05100
C742        C  0.51080050  0.78831486  0.93920549     0.09100
C743        C  0.46862646  0.78196520  0.94929802    -0.02500
C744        C  0.46206570  0.81768009  0.96118698    -0.00700
C745        C  0.49861733  0.85896707  0.96330969    -0.04300
C746        C  0.54287596  0.86301755  0.95383733     0.02700
C747        C  0.51264111  0.75551654  0.92533473     0.09500
C748        C  0.43109578  0.73949860  0.94711256     0.35400
C749        C  0.58177293  0.90397154  0.95640623     0.38800
C750        C  0.54750268  0.71326357  0.92417153    -0.04700
C751        C  0.54682712  0.68098949  0.91130224     0.02400
C752        C  0.51027119  0.69010869  0.89965954    -0.04300
C753        C  0.47629499  0.73339344  0.90077153    -0.00500
C754        C  0.47801437  0.76625146  0.91346088    -0.03100
C755        C  0.58377954  0.70290400  0.93629594     0.36200
C756        C  0.44069992  0.74556369  0.88863813     0.39800
C757        C  0.58335689  0.63804424  0.91029086     0.38900
C758        C  0.44452572  0.81179649  0.91426310     0.35800
C759        C  0.59168319  0.83512521  0.93125935     0.36500
C760        C  0.41646946  0.81337863  0.97082753     0.39800
N761        N  0.61323023  0.60435824  0.90960569    -0.38300
N762        N  0.61280323  0.69486576  0.94595499    -0.39900
N763        N  0.41230743  0.75523471  0.87895574    -0.37600
N764        N  0.41804275  0.84826597  0.91492020    -0.40000
N765        N  0.40127120  0.70558130  0.94529720    -0.39800
N766        N  0.38009207  0.81006725  0.97852301    -0.37400
N767        N  0.61257212  0.93682698  0.95847758    -0.38500
N768        N  0.62612494  0.84066259  0.92295817    -0.40100
C769        C  0.05086474  0.39028091  0.72288079    -0.05100
C770        C  0.00796720  0.35592238  0.72172026     0.09100
C771        C  0.96434813  0.36353273  0.73088103    -0.02500
C772        C  0.96327558  0.40530941  0.74131927    -0.00700
C773        C  0.00274865  0.44681901  0.74116977    -0.04300
C774        C  0.04843425  0.43555337  0.73210597     0.02700
C775        C  0.00985302  0.30886784  0.71164877     0.09500
C776        C  0.92140359  0.32545461  0.73019594     0.35400
C777        C  0.09320292  0.47077910  0.73108201     0.38800
C778        C  0.03552662  0.26311144  0.71642844    -0.04700
C779        C  0.03376854  0.21731677  0.70754186     0.02400
C780        C  0.00648389  0.21703064  0.69379259    -0.04300
C781        C  0.98128714  0.26305366  0.68893132    -0.00500
C782        C  0.98286074  0.30873145  0.69785485    -0.03100
C783        C  0.06270377  0.26293744  0.73069303     0.36200
C784        C  0.95447501  0.26392407  0.67460326     0.39800
C785        C  0.05758999  0.16963468  0.71295257     0.38900
C786        C  0.95607991  0.35538489  0.69286931     0.35800
C787        C  0.09767733  0.37920442  0.71418911     0.36500
C788        C  0.92523660  0.39774427  0.75316798     0.39800
N789        N  0.07599078  0.13144518  0.71739142    -0.38300
N790        N  0.08443584  0.26306314  0.74206390    -0.39900
N791        N  0.93304568  0.26469046  0.66318750    -0.37600
N792        N  0.93418526  0.39201146  0.68867514    -0.40000
N793        N  0.88742709  0.29508717  0.72965811    -0.39800
N794        N  0.89488996  0.38824111  0.76242129    -0.37400
N795        N  0.13082474  0.49575895  0.72934011    -0.38500
N796        N  0.13503167  0.37001305  0.70736035    -0.40100
C797        C  0.98325917  0.64995481  0.74072079    -0.05100
C798        C  0.99270684  0.65120537  0.72527362     0.09100
C799        C  0.00079524  0.60378216  0.71766094    -0.02500
C800        C  0.99724333  0.55505092  0.72521497    -0.00700
C801        C  0.99524681  0.55246115  0.74139062    -0.04300
C802        C  0.98693896  0.60234372  0.74882950     0.02700
C803        C  0.99113455  0.70201814  0.71666773     0.09500
C804        C  0.01216554  0.60527052  0.70169326     0.35400
C805        C  0.98630440  0.60771087  0.76499209     0.38800
C806        C  0.03258768  0.73908936  0.71760958    -0.04700
C807        C  0.03347680  0.78360789  0.70817136     0.02400
C808        C  0.99255172  0.79204209  0.69774618    -0.04300
C809        C  0.94933603  0.75632266  0.69755434    -0.00500
C810        C  0.94884306  0.71179800  0.70693654    -0.03100
C811        C  0.07443728  0.73187382  0.72835346     0.36200
C812        C  0.90563788  0.76365263  0.68741423     0.39800
C813        C  0.07632773  0.82122490  0.70948215     0.38900
C814        C  0.90480151  0.67527710  0.70646294     0.35800
C815        C  0.97101991  0.69863337  0.74840561     0.36500
C816        C  0.99006531  0.51020351  0.71546768     0.39800
N817        N  0.11057708  0.85111935  0.71055959    -0.38300
N818        N  0.10781897  0.72749735  0.73701008    -0.39900
N819        N  0.87048569  0.76923223  0.67941090    -0.37600
N820        N  0.86991049  0.64594677  0.70606172    -0.40000
N821        N  0.02131395  0.60654906  0.68900454    -0.39800
N822        N  0.98316040  0.47654137  0.70696225    -0.37400
N823        N  0.98584992  0.61637772  0.77771880    -0.38500
N824        N  0.96131399  0.73738418  0.75452641    -0.40100
C825        C  0.11519967  0.45267467  0.77786598    -0.05100
C826        C  0.14925540  0.49606931  0.77834471     0.09100
C827        C  0.13907455  0.53935165  0.76927914    -0.02500
C828        C  0.09435969  0.54037174  0.75991378    -0.00700
C829        C  0.05444271  0.49934145  0.76049837    -0.04300
C830        C  0.06871485  0.45371938  0.76915655     0.02700
C831        C  0.19697398  0.49632915  0.78821550     0.09500
C832        C  0.17708021  0.58241061  0.76905698     0.35400
C833        C  0.03513270  0.40770983  0.77034517     0.38800
C834        C  0.24184666  0.46765736  0.78413740    -0.04700
C835        C  0.28706474  0.46924774  0.79327043     0.02400
C836        C  0.28848356  0.50110881  0.80626134    -0.04300
C837        C  0.24387226  0.53073141  0.81012246    -0.00500
C838        C  0.19821779  0.52781146  0.80124307    -0.03100
C839        C  0.24182701  0.43760627  0.77032009     0.36200
C840        C  0.24403563  0.56318065  0.82349108     0.39800
C841        C  0.33263729  0.43902351  0.78907656     0.38900
C842        C  0.15241903  0.55761600  0.80548650     0.35800
C843        C  0.12734666  0.40709908  0.78692364     0.36500
C844        C  0.09701546  0.58038109  0.74845063     0.39800
N845        N  0.36893525  0.41481358  0.78573601    -0.38300
N846        N  0.24168453  0.41384566  0.75925986    -0.39900
N847        N  0.24403127  0.58924590  0.83411957    -0.37600
N848        N  0.11618819  0.58176746  0.80890817    -0.40000
N849        N  0.20737469  0.61649350  0.76888209    -0.39800
N850        N  0.10286325  0.61188367  0.73928646    -0.37400
N851        N  0.01151780  0.36926992  0.77217164    -0.38500
N852        N  0.13707835  0.37077540  0.79410108    -0.40100
C853        C  0.90022413  0.49648846  0.78581850    -0.05100
C854        C  0.85187187  0.49650246  0.77844010     0.09100
C855        C  0.85061899  0.50180103  0.76285479    -0.02500
C856        C  0.89763278  0.50470676  0.75443543    -0.00700
C857        C  0.94864202  0.50058377  0.76146087    -0.04300
C858        C  0.94799370  0.49984023  0.77770664     0.02700
C859        C  0.80176999  0.49486589  0.78728837     0.09500
C860        C  0.79998876  0.50200066  0.75537335     0.35400
C861        C  0.99396909  0.50778960  0.78695634     0.38800
C862        C  0.77478662  0.54165989  0.79016581    -0.04700
C863        C  0.72864009  0.54116714  0.79888233     0.02400
C864        C  0.70929203  0.49352600  0.80523055    -0.04300
C865        C  0.73546071  0.44611815  0.80162123    -0.00500
C866        C  0.78179967  0.44711442  0.79294295    -0.03100
C867        C  0.79559332  0.59087050  0.78441853     0.36200
C868        C  0.71546702  0.39568882  0.80668431     0.39800
C869        C  0.70136505  0.59028947  0.80100018     0.38900
C870        C  0.80969469  0.39876605  0.79022482     0.35800
C871        C  0.90033668  0.49501862  0.80212063     0.36500
C872        C  0.89106836  0.50706963  0.73831669     0.39800
N873        N  0.67995024  0.62968130  0.80262048    -0.38300
N874        N  0.81237200  0.62999843  0.77984249    -0.39900
N875        N  0.69979635  0.35519701  0.81057872    -0.37600
N876        N  0.83128264  0.35959112  0.78842656    -0.40000
N877        N  0.75964794  0.50191689  0.74946020    -0.39800
N878        N  0.88165842  0.50864049  0.72565184    -0.37400
N879        N  0.02848113  0.51499845  0.79513739    -0.38500
N880        N  0.90017318  0.49407655  0.81507699    -0.40100
C881        C  0.69606397  0.02705461  0.69891225    -0.05100
C882        C  0.69704080  0.00088245  0.71281875     0.09100
C883        C  0.74396895  0.97772596  0.71777773    -0.02500
C884        C  0.78934288  0.98008822  0.70877777    -0.00700
C885        C  0.78808178  0.00547496  0.69477839    -0.04300
C886        C  0.74131388  0.02906157  0.68986164     0.02700
C887        C  0.64893723  0.00011136  0.72246043     0.09500
C888        C  0.74621803  0.95205410  0.73220867     0.35400
C889        C  0.73912803  0.05394540  0.67528757     0.38800
C890        C  0.60820079  0.96429394  0.71964319    -0.04700
C891        C  0.56226159  0.96402549  0.72857672     0.02400
C892        C  0.55476444  0.00164252  0.74057900    -0.04300
C893        C  0.59517234  0.04180511  0.74170628    -0.00500
C894        C  0.64244417  0.03854635  0.73345503    -0.03100
C895        C  0.61429753  0.92662823  0.70752210     0.36200
C896        C  0.58857031  0.09107603  0.74941237     0.39800
C897        C  0.52514839  0.92207376  0.72538166     0.38900
C898        C  0.68435548  0.07699287  0.73569755     0.35800
C899        C  0.64842357  0.05236496  0.69401296     0.36500
C900        C  0.83796616  0.95781086  0.71412653     0.39800
N901        N  0.49843634  0.88731758  0.72179195    -0.38300
N902        N  0.61904453  0.89685164  0.69782756    -0.39900
N903        N  0.58617713  0.13199728  0.75493788    -0.37600
N904        N  0.71774630  0.10747157  0.73741593    -0.40000
N905        N  0.74975296  0.93145819  0.74368561    -0.39800
N906        N  0.87686983  0.94038205  0.71839350    -0.37400
N907        N  0.73739047  0.07368936  0.66364691    -0.38500
N908        N  0.61035971  0.07259383  0.69018142    -0.40100
C909        C  0.36869378  0.96444921  0.73036857    -0.05100
C910        C  0.36675239  0.00288235  0.71919674     0.09100
C911        C  0.41008833  0.03649737  0.71726321    -0.02500
C912        C  0.45240349  0.03598203  0.72756565    -0.00700
C913        C  0.45572981  0.99672425  0.73920951    -0.04300
C914        C  0.41474703  0.95714955  0.73882028     0.02700
C915        C  0.31976776  0.00547292  0.70904953     0.09500
C916        C  0.41051430  0.07270262  0.70472645     0.35400
C917        C  0.42055343  0.90457318  0.74457025     0.38800
C918        C  0.28503810  0.04808423  0.70979920    -0.04700
C919        C  0.23835747  0.04758705  0.70130417     0.02400
C920        C  0.22453921  0.00335522  0.69239687    -0.04300
C921        C  0.26070328  0.96155742  0.69124040    -0.00500
C922        C  0.30853341  0.96353695  0.69917341    -0.03100
C923        C  0.29732315  0.09308592  0.71917894     0.36200
C924        C  0.25025839  0.91692529  0.68154001     0.39800
C925        C  0.20516242  0.09336443  0.70175808     0.38900
C926        C  0.34707778  0.92277826  0.69694067     0.35800
C927        C  0.32318685  0.93071264  0.73288651     0.36500
C928        C  0.48999573  0.07872059  0.72622081     0.39800
N929        N  0.17982529  0.13069568  0.70197402    -0.38300
N930        N  0.30657991  0.12985226  0.72636515    -0.39900
N931        N  0.24217385  0.88112314  0.67385628    -0.37600
N932        N  0.37800283  0.89054947  0.69508912    -0.40000
N933        N  0.41082209  0.10148431  0.69473028    -0.39800
N934        N  0.51786783  0.11418190  0.72433492    -0.37400
N935        N  0.42370691  0.86141064  0.74837332    -0.38500
N936        N  0.28697578  0.90394721  0.73490338    -0.40100
C937        C  0.46090937  0.13187503  0.77101238    -0.05100
C938        C  0.49952978  0.13794471  0.78199107     0.09100
C939        C  0.53445296  0.09687813  0.78452001    -0.02500
C940        C  0.53473204  0.05208568  0.77501423    -0.00700
C941        C  0.49861667  0.04656694  0.76257491    -0.04300
C942        C  0.45797794  0.08586531  0.76210536     0.02700
C943        C  0.50031704  0.18634355  0.79166208     0.09500
C944        C  0.57157645  0.10169726  0.79680561     0.35400
C945        C  0.40823446  0.07835078  0.75459930     0.38800
C946        C  0.47510546  0.18581056  0.80575657    -0.04700
C947        C  0.47276588  0.23199772  0.81448664     0.02400
C948        C  0.49570872  0.27907101  0.80917804    -0.04300
C949        C  0.52128199  0.27956391  0.79518582    -0.00500
C950        C  0.52293793  0.23365773  0.78635797    -0.03100
C951        C  0.45070650  0.13780077  0.81112734     0.36200
C952        C  0.54484688  0.32790927  0.78969521     0.39800
C953        C  0.44820554  0.23061163  0.82913665     0.38900
C954        C  0.54656552  0.23614679  0.77162520     0.35800
C955        C  0.42166618  0.17257635  0.76955975     0.36500
C956        C  0.57558231  0.01450121  0.77797904     0.39800
N957        N  0.42876242  0.22952885  0.84084576    -0.38300
N958        N  0.43125097  0.09941470  0.81535831    -0.39900
N959        N  0.56360907  0.36649839  0.78536079    -0.37600
N960        N  0.56521718  0.24033413  0.75987176    -0.40000
N961        N  0.60094452  0.10539847  0.80663225    -0.39800
N962        N  0.60938543  0.98708940  0.78136733    -0.37400
N963        N  0.36690540  0.07396579  0.74940370    -0.38500
N964        N  0.39048494  0.20497807  0.76855228    -0.40100
C965        C  0.46660332  0.75936082  0.78526704    -0.05100
C966        C  0.49771234  0.80378523  0.78878051     0.09100
C967        C  0.53212022  0.80211170  0.80114629    -0.02500
C968        C  0.53600277  0.75619796  0.80983036    -0.00700
C969        C  0.50488234  0.71157612  0.80632719    -0.04300
C970        C  0.47018708  0.71345126  0.79399572     0.02700
C971        C  0.49759225  0.85149151  0.77897330     0.09500
C972        C  0.56327005  0.84815893  0.80499529     0.35400
C973        C  0.43904721  0.66753134  0.79001037     0.38800
C974        C  0.46031232  0.89082476  0.78093933    -0.04700
C975        C  0.46286636  0.93770744  0.77240936     0.02400
C976        C  0.50392245  0.94679325  0.76149249    -0.04300
C977        C  0.54478598  0.90781962  0.76132423    -0.00500
C978        C  0.53877537  0.85956402  0.76888944    -0.03100
C979        C  0.41750676  0.88163053  0.79137795     0.36200
C980        C  0.59730559  0.91759251  0.75583197     0.39800
C981        C  0.42002714  0.97378122  0.77457503     0.28500
C982        C  0.57678486  0.81801814  0.76675371     0.35800
C983        C  0.43082357  0.76056979  0.77268398     0.36500
C984        C  0.57078172  0.75588255  0.82267154     0.39800
N985        N  0.38413141  0.99972182  0.77707332    -0.38300
N986        N  0.38313126  0.87396038  0.79956836    -0.39900
N987        N  0.64037351  0.92356986  0.75213281    -0.37600
N988        N  0.60685628  0.78489598  0.76504919    -0.40000
N989        N  0.58795150  0.88500587  0.80802426    -0.39800
N990        N  0.59860651  0.75575494  0.83290094    -0.37400
N991        N  0.41429607  0.63090818  0.78680110    -0.38500
N992        N  0.40164349  0.76036971  0.76277228    -0.40100
C993        C  0.28687860  0.52061837  0.07905958    -0.05100
C994        C  0.24335791  0.48637349  0.07787320     0.09100
C995        C  0.23198467  0.45089625  0.08955365    -0.02500
C996        C  0.26323565  0.45058800  0.10256546    -0.00700
C997        C  0.30530944  0.48678632  0.10412173    -0.04300
C998        C  0.31745464  0.52130481  0.09219187     0.02700
C999        C  0.20735411  0.49004294  0.06475149     0.09500
C1000       C  0.18698528  0.41585689  0.08835734     0.35400
C1001       C  0.36198737  0.55698660  0.09320570     0.38800
C1002       C  0.20804907  0.45155905  0.05337359    -0.04700
C1003       C  0.17181441  0.45374908  0.04149421     0.02400
C1004       C  0.13477808  0.49447980  0.04096431    -0.04300
C1005       C  0.13546576  0.53404755  0.05205507    -0.00500
C1006       C  0.17155794  0.53174080  0.06393317    -0.03100
C1007       C  0.24599744  0.40971724  0.05393815     0.36200
C1008       C  0.09871922  0.57696339  0.05127344     0.39800
C1009       C  0.17225381  0.41389036  0.02987292     0.38900
C1010       C  0.17169180  0.57210147  0.07541433     0.35800
C1011       C  0.29977193  0.55555286  0.06676447     0.36500
C1012       C  0.25044656  0.41446049  0.11458414     0.39800
N1013       N  0.17269864  0.38239980  0.02051991    -0.38300
N1014       N  0.27622645  0.37627879  0.05439345    -0.39900
N1015       N  0.06914908  0.61096556  0.05066607    -0.37600
N1016       N  0.17219273  0.60440226  0.08453949    -0.40000
N1017       N  0.15105687  0.38798860  0.08737623    -0.39800
N1018       N  0.24022057  0.38551023  0.12413399    -0.37400
N1019       N  0.39739138  0.58561819  0.09389960    -0.38500
N1020       N  0.30993567  0.58340956  0.05695131    -0.40100
C1021       C  0.69676673  0.50965627  0.07270387    -0.05100
C1022       C  0.75126967  0.50663634  0.07523046     0.09100
C1023       C  0.77041373  0.50456670  0.09005897    -0.02500
C1024       C  0.73531019  0.50579361  0.10225688    -0.00700
C1025       C  0.68079986  0.50678719  0.09969720    -0.04300
C1026       C  0.66154149  0.50808786  0.08489254     0.02700
C1027       C  0.78867997  0.50479239  0.06229949     0.09500
C1028       C  0.82627913  0.50062873  0.09274022     0.35400
C1029       C  0.60550683  0.50682796  0.08219359     0.38800
C1030       C  0.81951992  0.54926809  0.05866829    -0.04700
C1031       C  0.85722936  0.54643977  0.04715148     0.02400
C1032       C  0.86353964  0.49946716  0.03897470    -0.04300
C1033       C  0.83178094  0.45542628  0.04231913    -0.00500
C1034       C  0.79462964  0.45796647  0.05400143    -0.03100
C1035       C  0.81242608  0.59789165  0.06683890     0.36200
C1036       C  0.83837905  0.40717162  0.03394051     0.39800
C1037       C  0.89020232  0.59159721  0.04382427     0.38900
C1038       C  0.76316008  0.41211047  0.05769125     0.35800
C1039       C  0.67713731  0.51525257  0.05756436     0.36500
C1040       C  0.75521111  0.50604645  0.11747436     0.39800
N1041       N  0.91676195  0.62746040  0.04118745    -0.38300
N1042       N  0.80665000  0.63663787  0.07337604    -0.39900
N1043       N  0.84383447  0.36876570  0.02721754    -0.37600
N1044       N  0.73793262  0.37559097  0.06063167    -0.40000
N1045       N  0.87086660  0.49744171  0.09484663    -0.39800
N1046       N  0.77092711  0.50656256  0.12962910    -0.37400
N1047       N  0.56079343  0.50562556  0.08004033    -0.38500
N1048       N  0.66165934  0.52020254  0.04547768    -0.40100
C1049       C  0.30235244  0.53661523  0.92616531    -0.05100
C1050       C  0.25384526  0.50969206  0.92679622     0.09100
C1051       C  0.23572203  0.48123081  0.91422542    -0.02500
C1052       C  0.26616765  0.47918462  0.90110318    -0.00700
C1053       C  0.31414706  0.50715736  0.90029958    -0.04300
C1054       C  0.33215522  0.53602586  0.91285903     0.02700
C1055       C  0.22032364  0.51224196  0.94046531     0.09500
C1056       C  0.18499396  0.45499059  0.91472780     0.35400
C1057       C  0.38201072  0.56388148  0.91226464     0.38800
C1058       C  0.18753449  0.55569924  0.94274996    -0.04700
C1059       C  0.14973358  0.55461312  0.95424511     0.02400
C1060       C  0.14426695  0.50982578  0.96339144    -0.04300
C1061       C  0.17918987  0.46764054  0.96166031    -0.00500
C1062       C  0.21728606  0.46894767  0.95023721    -0.03100
C1063       C  0.19177902  0.60081430  0.93295530     0.36200
C1064       C  0.17502590  0.42239951  0.97141126     0.39800
C1065       C  0.11599334  0.59926577  0.95658485     0.38900
C1066       C  0.25265254  0.42531782  0.94826664     0.35800
C1067       C  0.32162482  0.56455579  0.93924495     0.36500
C1068       C  0.24717706  0.44950962  0.88828235     0.39800
N1069       N  0.08907431  0.63489297  0.95847820    -0.38300
N1070       N  0.19547896  0.63673515  0.92512267    -0.39900
N1071       N  0.17176317  0.38644461  0.97924619    -0.37600
N1072       N  0.28095600  0.39059886  0.94667001    -0.40000
N1073       N  0.14442431  0.43434717  0.91518265    -0.39800
N1074       N  0.23205748  0.42566781  0.87808980    -0.37400
N1075       N  0.42174800  0.58612666  0.91180146    -0.38500
N1076       N  0.33712982  0.58673218  0.94968978    -0.40100
C1077       C  0.81271862  0.45020884  0.94363251    -0.05100
C1078       C  0.79817870  0.49765528  0.93677384     0.09100
C1079       C  0.82045910  0.54549991  0.94177584    -0.02500
C1080       C  0.85706689  0.54584362  0.95359969    -0.00700
C1081       C  0.87130763  0.49840467  0.96051903    -0.04300
C1082       C  0.84900252  0.45060825  0.95552687     0.02700
C1083       C  0.76053032  0.49696753  0.92394803     0.09500
C1084       C  0.80615414  0.59423788  0.93460511     0.35400
C1085       C  0.86430010  0.40177560  0.96246075     0.38800
C1086       C  0.70613503  0.49189521  0.92657107    -0.04700
C1087       C  0.67085934  0.49062824  0.91441015     0.02400
C1088       C  0.68981509  0.49598154  0.89963847    -0.04300
C1089       C  0.74416505  0.50009489  0.89700367    -0.00500
C1090       C  0.77948890  0.50012890  0.90912369    -0.03100
C1091       C  0.68664163  0.48788344  0.94178889     0.36200
C1092       C  0.76370103  0.50291768  0.88176497     0.39800
C1093       C  0.61511385  0.48387850  0.91708255     0.38900
C1094       C  0.83546739  0.50231223  0.90636699     0.35800
C1095       C  0.79120093  0.40091004  0.93816277     0.36500
C1096       C  0.88060431  0.59485276  0.95859213     0.39800
N1097       N  0.57064853  0.47856511  0.91922640    -0.38300
N1098       N  0.67122922  0.48457206  0.95394415    -0.39900
N1099       N  0.77902480  0.50488886  0.86957824    -0.37600
N1100       N  0.88016568  0.50378392  0.90420236    -0.40000
N1101       N  0.79490568  0.63308237  0.92882885    -0.39800
N1102       N  0.89954903  0.63384135  0.96260859    -0.37400
N1103       N  0.87666281  0.36282596  0.96797899    -0.38500
N1104       N  0.77400643  0.36169506  0.93371792    -0.40100
C1105       C  0.68980926  0.95733302  0.30049590    -0.05100
C1106       C  0.67835418  0.99931800  0.29082737     0.09100
C1107       C  0.71220921  0.04346666  0.29057520    -0.02500
C1108       C  0.75762105  0.04507599  0.29961526    -0.00700
C1109       C  0.77189676  0.00109573  0.30836283    -0.04300
C1110       C  0.73675911  0.95738484  0.30889773     0.02700
C1111       C  0.63080798  0.99661227  0.28083461     0.09500
C1112       C  0.70036157  0.08790120  0.28109205     0.35400
C1113       C  0.74707558  0.91286351  0.31849519     0.38800
C1114       C  0.58832349  0.02995175  0.28317679    -0.04700
C1115       C  0.54677170  0.03191013  0.27268679     0.02400
C1116       C  0.54214899  0.99436155  0.26052375    -0.04300
C1117       C  0.58241282  0.95487998  0.26020477    -0.00500
C1118       C  0.62817204  0.96007848  0.26908700    -0.03100
C1119       C  0.58833882  0.06387904  0.29629109     0.36200
C1120       C  0.57790818  0.90551369  0.25233099     0.39800
C1121       C  0.51224127  0.07632561  0.27426808     0.38900
C1122       C  0.67359260  0.92783135  0.26596273     0.35800
C1123       C  0.65227080  0.91449672  0.30207432     0.36500
C1124       C  0.78842235  0.09311903  0.30006666     0.39800
N1125       N  0.48748311  0.11333241  0.27642709    -0.38300
N1126       N  0.58835922  0.09082674  0.30673801    -0.39900
N1127       N  0.57718934  0.86446231  0.24679156    -0.37600
N1128       N  0.70992222  0.90257826  0.26339031    -0.40000
N1129       N  0.69151532  0.12409996  0.27376817    -0.39800
N1130       N  0.81145477  0.13238092  0.30062354    -0.37400
N1131       N  0.75490227  0.87710728  0.32609736    -0.38500
N1132       N  0.62208942  0.88062003  0.30337415    -0.40100
C1133       C  0.38905102  0.95714934  0.27893279    -0.05100
C1134       C  0.35167372  0.99672267  0.27811264     0.09100
C1135       C  0.36032557  0.03940512  0.26858791    -0.02500
C1136       C  0.40617512  0.04295780  0.25967226    -0.00700
C1137       C  0.44412435  0.00118250  0.25934368    -0.04300
C1138       C  0.43466265  0.95902369  0.26989605     0.02700
C1139       C  0.30439832  0.99557477  0.28809465     0.09500
C1140       C  0.32161086  0.08095526  0.26828465     0.35400
C1141       C  0.46865117  0.91396711  0.27096401     0.38800
C1142       C  0.30401828  0.02629125  0.30126697    -0.04700
C1143       C  0.25924943  0.02689749  0.31052002     0.02400
C1144       C  0.21392715  0.99779561  0.30645014    -0.04300
C1145       C  0.21460049  0.96649325  0.29338894    -0.00500
C1146       C  0.25977630  0.96510676  0.28429524    -0.03100
C1147       C  0.34997006  0.05726359  0.30528520     0.36200
C1148       C  0.16833686  0.93641252  0.28910461     0.39800
C1149       C  0.26101448  0.05533123  0.32460800     0.38900
C1150       C  0.25990160  0.93210934  0.27106620     0.35800
C1151       C  0.37936054  0.91308720  0.28889550     0.36500
C1152       C  0.41345652  0.09289801  0.25236140     0.39800
N1153       N  0.26263484  0.07759439  0.33591182    -0.38300
N1154       N  0.38660047  0.08212422  0.30838893    -0.39900
N1155       N  0.13150861  0.91240394  0.28566400    -0.37600
N1156       N  0.25845437  0.90485575  0.26069429    -0.40000
N1157       N  0.29099272  0.11408408  0.26812462    -0.39800
N1158       N  0.41634335  0.13436522  0.24721596    -0.37400
N1159       N  0.49286957  0.87626702  0.27248733    -0.38500
N1160       N  0.37126953  0.87784901  0.29673043    -0.40100
C1161       C  0.54829381  0.13404133  0.23148360    -0.05100
C1162       C  0.50990002  0.14524127  0.22087745     0.09100
C1163       C  0.47108593  0.10773363  0.21766639    -0.02500
C1164       C  0.46724659  0.06080312  0.22608660    -0.00700
C1165       C  0.50288605  0.05008093  0.23828466    -0.04300
C1166       C  0.54734518  0.08593393  0.23931806     0.02700
C1167       C  0.51291867  0.19512719  0.21213088     0.09500
C1168       C  0.43357879  0.11867673  0.20584226     0.35400
C1169       C  0.59734984  0.07206993  0.24579026     0.38800
C1170       C  0.54028913  0.19653156  0.19839845    -0.04700
C1171       C  0.54207343  0.24303277  0.18991185     0.02400
C1172       C  0.51556803  0.28811216  0.19501602    -0.04300
C1173       C  0.48905261  0.28689809  0.20887439    -0.00500
C1174       C  0.48851681  0.24082671  0.21753162    -0.03100
C1175       C  0.56619926  0.14983473  0.19295654     0.36200
C1176       C  0.46276100  0.33340115  0.21433164     0.39800
C1177       C  0.56934263  0.24358730  0.17564762     0.38900
C1178       C  0.46344527  0.24108119  0.23208744     0.35800
C1179       C  0.59128685  0.17133061  0.23358430     0.36500
C1180       C  0.42390228  0.02643650  0.22210621     0.39800
N1181       N  0.59117030  0.24412495  0.16428304    -0.38300
N1182       N  0.58681223  0.11257877  0.18860709    -0.39900
N1183       N  0.44172089  0.37042575  0.21867544    -0.37600
N1184       N  0.44368253  0.24309162  0.24373418    -0.40000
N1185       N  0.40376621  0.12749094  0.19644366    -0.39800
N1186       N  0.38830019  0.00248749  0.21772011    -0.37400
N1187       N  0.63891354  0.06237847  0.25006074    -0.38500
N1188       N  0.62563054  0.20082777  0.23515328    -0.40100
C1189       C  0.47743510  0.80728261  0.19492954    -0.05100
C1190       C  0.49233698  0.80771651  0.21014875     0.09100
C1191       C  0.50725905  0.76066033  0.21719417    -0.02500
C1192       C  0.50924995  0.71377139  0.20889459    -0.00700
C1193       C  0.49584814  0.71374201  0.19362139    -0.04300
C1194       C  0.47960597  0.76039703  0.18662875     0.02700
C1195       C  0.49070052  0.85762642  0.21888248     0.09500
C1196       C  0.51872131  0.75991869  0.23308693     0.35400
C1197       C  0.46531509  0.76014966  0.17089091     0.38800
C1198       C  0.44818528  0.86765661  0.22824700    -0.04700
C1199       C  0.44572028  0.91501094  0.23639691     0.02400
C1200       C  0.49029010  0.95077287  0.23717116    -0.04300
C1201       C  0.52975483  0.94225984  0.22582823    -0.00500
C1202       C  0.52982347  0.89596464  0.21702821    -0.03100
C1203       C  0.40510186  0.82976978  0.22882135     0.36200
C1204       C  0.57283966  0.97846421  0.22316607     0.39800
C1205       C  0.39350562  0.92820369  0.24142922     0.38900
C1206       C  0.57200148  0.88619410  0.20645129     0.35800
C1207       C  0.45840840  0.85477923  0.18797821     0.36500
C1208       C  0.52342684  0.66512249  0.21615302     0.39800
N1209       N  0.35085024  0.93788103  0.24471843    -0.38300
N1210       N  0.37089752  0.79964118  0.22922759    -0.39900
N1211       N  0.60833061  0.00467791  0.21991807    -0.37600
N1212       N  0.60547721  0.87820151  0.19803018    -0.40000
N1213       N  0.52718911  0.75833597  0.24580502    -0.39800
N1214       N  0.53436318  0.62619868  0.22193322    -0.37400
N1215       N  0.45394857  0.75984253  0.15834373    -0.38500
N1216       N  0.44294489  0.89263504  0.18248959    -0.40100
loop_ 
_geom_bond_atom_site_label_1 
_geom_bond_atom_site_label_2 
_geom_bond_distance 
_geom_bond_site_symmetry_2 
_ccdc_geom_bond_type 
C1         C1116   1.609       .  S
C1         C1137   1.607   1_565  S
C1         C1165   1.611   1_565  S
C1         C1200   1.609       .  S
N2            C7   1.351       .  A
N2            C6   1.351   1_554  A
N2           H34   1.039       .  S
N3           C10   1.352       .  A
N3           C11   1.351   1_455  A
N4            C9   1.354       .  A
N4            C8   1.352   1_554  A
N4           H35   1.038       .  S
N5           C12   1.350       .  A
N5           C13   1.350   1_455  A
C6           C14   1.387       .  A
C6           C22   1.411       .  A
C7           C23   1.412       .  A
C7           C15   1.387       .  A
C8           C16   1.387       .  A
C8           C25   1.416       .  A
C9           C24   1.416       .  A
C9           C17   1.387       .  A
C10          C22   1.414       .  A
C10          C18   1.386       .  A
C11          C25   1.414       .  A
C11          C19   1.387       .  A
C12          C20   1.387       .  A
C12          C23   1.413       .  A
C13          C21   1.386       .  A
C13          C24   1.412       .  A
C14          C15   1.375   1_556  A
C14          H26   1.082       .  S
C15          H27   1.082       .  S
C16          C17   1.377   1_556  A
C16          H28   1.082       .  S
C17          H29   1.082       .  S
C18          C19   1.373   1_455  A
C18          H30   1.082       .  S
C19          H31   1.082       .  S
C20          C21   1.372   1_455  A
C20          H32   1.082       .  S
C21          H33   1.082       .  S
C22        C1060   1.494       .  S
C23        C1004   1.493       .  S
C24        C1032   1.495       .  S
C25        C1081   1.493       .  S
C36         C892   1.611   1_565  S
C36         C913   1.609       .  S
C36         C941   1.615   1_565  S
C36         C976   1.610       .  S
C37         C773   1.616       .  S
C37         C801   1.612   1_455  S
C37         C829   1.613       .  S
C37         C857   1.611   1_455  S
N38          C43   1.351       .  A
N38          C42   1.352   1_554  A
N38          H70   1.040       .  S
N39          C46   1.350       .  A
N39          C47   1.350   1_565  A
N40          C45   1.353   1_556  A
N40          C44   1.352       .  A
N40          H71   1.040       .  S
N41          C48   1.350   1_545  A
N41          C49   1.350       .  A
C42          C50   1.386       .  A
C42          C58   1.412       .  A
C43          C59   1.412       .  A
C43          C51   1.387       .  A
C44          C52   1.386       .  A
C44          C61   1.414       .  A
C45          C60   1.416       .  A
C45          C53   1.387       .  A
C46          C58   1.411       .  A
C46          C54   1.386       .  A
C47          C61   1.410       .  A
C47          C55   1.387       .  A
C48          C56   1.386       .  A
C48          C59   1.411       .  A
C49          C57   1.387       .  A
C49          C60   1.413       .  A
C50          C51   1.377   1_556  A
C50          H62   1.082       .  S
C51          H63   1.082       .  S
C52          C53   1.378   1_556  A
C52          H64   1.082       .  S
C53          H65   1.082       .  S
C54          C55   1.371   1_565  A
C54          H66   1.082       .  S
C55          H67   1.082       .  S
C56          C57   1.373   1_565  A
C56          H68   1.082       .  S
C57          H69   1.082       .  S
C58         C745   1.494       .  S
C59         C689   1.491       .  S
C60         C668   1.499       .  S
C61         C717   1.492       .  S
N72          N73   1.321       .  A
N72          N78   1.314       .  A
N72        Mn101   2.215       .  S
N73          C80   1.356       .  A
N74          N76   1.316       .  A
N74          N75   1.322       .  A
N74         Mn90   2.214       .  S
N75          C81   1.356       .  A
N76          N77   1.319       .  A
N76        Mn101   2.197       .  S
N77          C81   1.352       .  A
N78          N79   1.320       .  A
N78         Mn90   2.186       .  S
N79          C80   1.351       .  A
C80         C752   1.489       .  S
C81         C969   1.489       .  S
N82          N88   1.314       .  A
N82          N83   1.321       .  A
N82        Mn112   2.211       .  S
N83          C91   1.358       .  A
N84          N85   1.321       .  A
N84          N86   1.314       .  A
N84         Mn90   2.204       .  S
N85          C92   1.353       .  A
N86          N87   1.320       .  A
N86        Mn112   2.193       .  S
N87          C92   1.350       .  A
N88          N89   1.317       .  A
N88         Mn90   2.193       .  S
N89          C91   1.354       .  A
Mn90       Cl114   2.551       .  S
C91         C864   1.508       .  S
C92        C1088   1.477       .  S
N93          N94   1.322       .  A
N93          N99   1.317       .  A
N93        Mn101   2.219       .  S
N94         C102   1.356       .  A
N95          N97   1.314       .  A
N95          N96   1.319       .  A
N95        Mn113   2.196       .  S
N96         C103   1.351       .  A
N97          N98   1.320       .  A
N97        Mn101   2.190       .  S
N98         C103   1.352       .  A
N99         N100   1.321       .  A
N99        Mn113   2.207       .  S
N100        C102   1.353       .  A
Mn101      Cl114   2.542       .  S
C102        C836   1.490       .  S
C103       C1053   1.479       .  S
N104        N105   1.319       .  A
N104        N110   1.315       .  A
N104       Mn112   2.199       .  S
N105        C115   1.351       .  A
N106        N107   1.322       .  A
N106        N108   1.316       .  A
N106       Mn113   2.210       .  S
N107        C116   1.354       .  A
N108        N109   1.319       .  A
N108       Mn112   2.196       .  S
N109        C116   1.351       .  A
N110        N111   1.321       .  A
N110       Mn113   2.198       .  S
N111        C115   1.352       .  A
Mn112      Cl114   2.541       .  S
Mn113      Cl114   2.550       .  S
C115        C724   1.476       .  S
C116        C948   1.483       .  S
N117        N118   1.316       .  A
N117        N123   1.317       .  A
N117       Mn146   2.186       .  S
N118        C125   1.349       .  A
N119        N121   1.314       .  A
N119        N120   1.316       .  A
N119       Mn135   2.185       .  S
N120        C126   1.350       .  A
N121        N122   1.321       .  A
N121       Mn146   2.203       .  S
N122        C126   1.355       .  A
N123        N124   1.320       .  A
N123       Mn135   2.204       .  S
N124        C125   1.353       .  A
C125       C1193   1.469       .  S
C126        C696   1.488       .  S
N127        N133   1.316       .  A
N127        N128   1.320       .  A
N127       Mn157   2.200       .  S
N128        C136   1.352       .  A
N129        N130   1.321       .  A
N129        N131   1.315       .  A
N129       Mn135   2.201       .  S
N130        C137   1.354       .  A
N131        N132   1.319       .  A
N131       Mn157   2.206       .  S
N132        C137   1.354       .  A
N133        N134   1.322       .  A
N133       Mn135   2.210       .  S
N134        C136   1.353       .  A
Mn135      Cl159   2.544       .  S
C136       C1025   1.480       .  S
C137        C640   1.491       .  S
N138        N139   1.319       .  A
N138        N144   1.314       .  A
N138       Mn146   2.194       .  S
N139        C147   1.353       .  A
N140        N142   1.313       .  A
N140        N141   1.319       .  A
N140       Mn158   2.198       .  S
N141        C148   1.354       .  A
N142        N143   1.322       .  A
N142       Mn146   2.213       .  S
N143        C148   1.358       .  A
N144        N145   1.320       .  A
N144       Mn158   2.198       .  S
N145        C147   1.353       .  A
Mn146      Cl159   2.549       .  S
C147        C997   1.485       .  S
C148        C605   1.505       .  S
N149        N150   1.319       .  A
N149        N155   1.315       .  A
N149       Mn157   2.197       .  S
N150        C160   1.353       .  A
N151        N152   1.317       .  A
N151        N153   1.313       .  A
N151       Mn158   2.186       .  S
N152        C161   1.351       .  A
N153        N154   1.322       .  A
N153       Mn157   2.205       .  S
N154        C161   1.357       .  A
N155        N156   1.318       .  A
N155       Mn158   2.197       .  S
N156        C160   1.352       .  A
Mn157      Cl159   2.549       .  S
Mn158      Cl159   2.538       .  S
C160       C1172   1.480       .  S
C161        C661   1.494       .  S
N162        N163   1.320       .  A
N162        N168   1.317   1_655  A
N162       Mn191   2.207       .  S
N163        C170   1.354   1_655  A
N164        N166   1.313   1_455  A
N164        N165   1.321       .  A
N164       Mn180   2.203       .  S
N165        C171   1.355       .  A
N166        N167   1.320       .  A
N166       Mn191   2.197       .  S
N167        C171   1.354   1_655  A
N168        N169   1.321       .  A
N168       Mn180   2.205       .  S
N169        C170   1.353       .  A
C170        C780   1.484       .  S
C171        C549   1.498       .  S
N172        N178   1.316   1_565  A
N172        N173   1.321       .  A
N172       Mn202   2.212       .  S
N173        C181   1.355       .  A
N174        N175   1.319       .  A
N174        N176   1.316   1_545  A
N174       Mn180   2.202       .  S
N175        C182   1.354       .  A
N176        N177   1.321       .  A
N176       Mn202   2.208       .  S
N177        C182   1.356   1_565  A
N178        N179   1.319       .  A
N178       Mn180   2.190       .  S
N179        C181   1.351   1_545  A
Mn180      Cl204   2.544       .  S
C181        C500   1.485       .  S
C182        C920   1.502       .  S
N183        N184   1.321       .  A
N183        N189   1.316   1_545  A
N183       Mn191   2.204       .  S
N184        C192   1.353   1_545  A
N185        N187   1.316   1_565  A
N185        N186   1.319       .  A
N185       Mn203   2.196       .  S
N186        C193   1.351   1_565  A
N187        N188   1.320       .  A
N187       Mn191   2.202       .  S
N188        C193   1.353       .  A
N189        N190   1.319       .  A
N189       Mn203   2.197       .  S
N190        C192   1.350       .  A
Mn191      Cl204   2.552   1_655  S
C192        C521   1.477       .  S
C193        C885   1.480       .  S
N194        N195   1.324       .  A
N194        N200   1.315   1_455  A
N194       Mn202   2.223       .  S
N195        C205   1.359   1_455  A
N196        N197   1.321       .  A
N196        N198   1.314   1_655  A
N196       Mn203   2.202       .  S
N197        C206   1.354       .  A
N198        N199   1.320       .  A
N198       Mn202   2.201       .  S
N199        C206   1.354   1_455  A
N200        N201   1.319       .  A
N200       Mn203   2.201       .  S
N201        C205   1.353       .  A
Mn202      Cl204   2.553   1_565  S
Mn203      Cl204   2.543   1_665  S
C205        C808   1.505       .  S
C206        C577   1.493       .  S
N207        N208   1.319       .  A
N207        N213   1.316   1_655  A
N207       Mn236   2.195       .  S
N208        C215   1.351       .  A
N209        N211   1.314   1_455  A
N209        N210   1.319       .  A
N209       Mn225   2.194       .  S
N210        C216   1.353   1_455  A
N211        N212   1.320       .  A
N211       Mn236   2.199       .  S
N212        C216   1.352       .  A
N213        N214   1.320       .  A
N213       Mn225   2.214       .  S
N214        C215   1.355   1_455  A
C215        C325   1.482       .  S
C216        C416   1.487       .  S
N217        N223   1.315   1_545  A
N217        N218   1.319       .  A
N217       Mn247   2.198       .  S
N218        C226   1.353   1_545  A
N219        N220   1.320       .  A
N219        N221   1.315   1_565  A
N219       Mn225   2.199       .  S
N220        C227   1.353       .  A
N221        N222   1.320       .  A
N221       Mn247   2.201       .  S
N222        C227   1.354   1_545  A
N223        N224   1.324       .  A
N223       Mn225   2.218       .  S
N224        C226   1.358       .  A
Mn225      Cl249   2.555   1_455  S
C226        C437   1.499       .  S
C227       C1144   1.484       .  S
N228        N229   1.319       .  A
N228        N234   1.316   1_565  A
N228       Mn236   2.191       .  S
N229        C237   1.349       .  A
N230        N232   1.315   1_545  A
N230        N231   1.322       .  A
N230       Mn248   2.214       .  S
N231        C238   1.357       .  A
N232        N233   1.320       .  A
N232       Mn236   2.202       .  S
N233        C238   1.354   1_565  A
N234        N235   1.322       .  A
N234       Mn248   2.216       .  S
N235        C237   1.354   1_545  A
Mn236      Cl249   2.541       .  S
C237        C472   1.477       .  S
C238       C1109   1.507       .  S
N239        N240   1.319       .  A
N239        N245   1.317   1_455  A
N239       Mn247   2.201       .  S
N240        C250   1.351       .  A
N241        N242   1.321       .  A
N241        N243   1.314   1_655  A
N241       Mn248   2.200       .  S
N242        C251   1.354   1_655  A
N243        N244   1.319       .  A
N243       Mn247   2.196       .  S
N244        C251   1.353       .  A
N245        N246   1.324       .  A
N245       Mn248   2.230       .  S
N246        C250   1.359   1_655  A
Mn247      Cl249   2.541   1_445  S
Mn248      Cl249   2.556   1_545  S
C250        C353   1.498       .  S
C251        C381   1.494       .  S
N252        C257   1.350   1_455  A
N252        C256   1.350   1_455  A
N252        H284   1.041       .  S
N253        C260   1.350       .  A
N253        C261   1.349       .  A
N254        C259   1.353       .  A
N254        C258   1.352   1_455  A
N254        H285   1.041       .  S
N255        C262   1.350       .  A
N255        C263   1.351       .  A
C256        C264   1.386       .  A
C256        C272   1.409   1_655  A
C257        C273   1.410   1_655  A
C257        C265   1.387       .  A
C258        C266   1.387       .  A
C258        C275   1.415   1_655  A
C259        C274   1.415       .  A
C259        C267   1.387   1_455  A
C260        C272   1.409       .  A
C260        C268   1.385       .  A
C261        C275   1.412       .  A
C261        C269   1.388       .  A
C262        C270   1.386       .  A
C262        C273   1.413       .  A
C263        C271   1.386       .  A
C263        C274   1.413       .  A
C264        C265   1.378       .  A
C264        H276   1.082       .  S
C265        H277   1.082       .  S
C266        C267   1.380       .  A
C266        H278   1.082       .  S
C267        H279   1.082       .  S
C268        C269   1.373       .  A
C268        H280   1.082       .  S
C269        H281   1.082       .  S
C270        C271   1.374       .  A
C270        H282   1.082       .  S
C271        H283   1.082       .  S
C272        C409   1.490   1_455  S
C273        C584   1.492       .  S
C274        C556   1.500       .  S
C275        C388   1.498       .  S
N286        C291   1.350   1_565  A
N286        C290   1.353   1_565  A
N286        H318   1.047       .  S
N287        C294   1.352       .  A
N287        C295   1.351       .  A
N288        C293   1.354       .  A
N288        C292   1.351       .  A
N288        H319   1.046   1_545  S
N289        C296   1.351   1_545  A
N289        C297   1.353   1_545  A
C290        C298   1.386       .  A
C290        C306   1.414   1_545  A
C291        C307   1.414   1_545  A
C291        C299   1.387       .  A
C292        C300   1.387       .  A
C292        C309   1.417       .  A
C293        C308   1.418       .  A
C293        C301   1.386       .  A
C294        C306   1.412       .  A
C294        C302   1.385       .  A
C295        C309   1.415   1_565  A
C295        C303   1.388       .  A
C296        C304   1.386       .  A
C296        C307   1.413       .  A
C297        C305   1.386       .  A
C297        C308   1.415   1_565  A
C298        C299   1.378       .  A
C298        H310   1.082       .  S
C299        H311   1.082       .  S
C300        C301   1.379       .  A
C300        H312   1.082       .  S
C301        H313   1.082       .  S
C302        C303   1.372       .  A
C302        H314   1.083       .  S
C303        H315   1.082       .  S
C304        C305   1.371       .  A
C304        H316   1.082       .  S
C305        H317   1.082       .  S
C306        C528   1.497       .  S
C307        C465   1.492       .  S
C308        C444   1.505       .  S
C309        C493   1.496       .  S
C320        C332   1.614       .  S
C320        C360   1.612       .  S
C320        C612   1.610   1_655  S
C320        C633   1.614       .  S
C321        C322   1.411   1_455  A
C321        C326   1.408       .  A
C321        C339   1.450       .  S
C322        C323   1.412       .  A
C322        C327   1.498       .  S
C323        C324   1.412       .  A
C323        C328   1.451       .  S
C324        C325   1.413       .  A
C324        C340   1.451       .  S
C325        C326   1.413   1_655  A
C326        C329   1.452       .  S
C327        C330   1.399       .  A
C327        C334   1.396   1_655  A
C328        N345   1.157       .  T
C329        N347   1.157       .  T
C330        C331   1.419       .  A
C330        C335   1.454       .  S
C331        C332   1.450       .  A
C331        C337   1.450       .  S
C332        C333   1.454   1_655  A
C333        C334   1.413       .  A
C333        C336   1.449       .  S
C334        C338   1.458       .  S
C335        N342   1.157       .  T
C336        N343   1.157       .  T
C337        N341   1.157       .  T
C338        N344   1.157       .  T
C339        N348   1.157       .  T
C340        N346   1.157       .  T
C349        C350   1.413       .  A
C349        C354   1.413       .  A
C349        C367   1.452       .  S
C350        C351   1.414   1_455  A
C350        C355   1.509       .  S
C351        C352   1.413       .  A
C351        C356   1.450       .  S
C352        C353   1.413   1_655  A
C352        C368   1.449       .  S
C353        C354   1.420       .  A
C354        C357   1.451       .  S
C355        C358   1.400       .  A
C355        C362   1.403   1_455  A
C356        N373   1.157       .  T
C357        N375   1.158       .  T
C358        C359   1.416       .  A
C358        C363   1.454       .  S
C359        C360   1.450   1_455  A
C359        C365   1.450       .  S
C360        C361   1.449       .  A
C361        C362   1.420       .  A
C361        C364   1.445       .  S
C362        C366   1.456       .  S
C363        N370   1.157       .  T
C364        N371   1.157       .  T
C365        N369   1.157       .  T
C366        N372   1.157       .  T
C367        N376   1.157       .  T
C368        N374   1.157       .  T
C377        C378   1.410       .  A
C377        C382   1.410       .  A
C377        C395   1.452       .  S
C378        C379   1.409   1_455  A
C378        C383   1.496       .  S
C379        C380   1.410       .  A
C379        C384   1.452       .  S
C380        C381   1.419   1_655  A
C380        C396   1.450       .  S
C381        C382   1.420       .  A
C382        C385   1.452       .  S
C383        C386   1.411   1_455  A
C383        C390   1.412       .  A
C384        N401   1.157       .  T
C385        N403   1.158       .  T
C386        C387   1.408       .  A
C386        C391   1.451       .  S
C387        C388   1.415   1_655  A
C387        C393   1.452       .  S
C388        C389   1.414       .  A
C389        C390   1.410       .  A
C389        C392   1.450       .  S
C390        C394   1.451       .  S
C391        N398   1.157       .  T
C392        N399   1.157       .  T
C393        N397   1.157       .  T
C394        N400   1.157       .  T
C395        N404   1.157       .  T
C396        N402   1.157       .  T
C405        C406   1.412       .  A
C405        C410   1.408       .  A
C405        C423   1.451       .  S
C406        C407   1.412   1_655  A
C406        C411   1.494       .  S
C407        C408   1.409       .  A
C407        C412   1.451       .  S
C408        C409   1.411   1_455  A
C408        C424   1.450       .  S
C409        C410   1.412       .  A
C410        C413   1.450       .  S
C411        C414   1.410       .  A
C411        C418   1.411   1_655  A
C412        N429   1.157       .  T
C413        N431   1.157       .  T
C414        C415   1.410       .  A
C414        C419   1.452       .  S
C415        C416   1.416       .  A
C415        C421   1.448       .  S
C416        C417   1.415   1_655  A
C417        C418   1.409       .  A
C417        C420   1.451       .  S
C418        C422   1.451       .  S
C419        N426   1.157       .  T
C420        N427   1.157       .  T
C421        N425   1.156       .  T
C422        N428   1.157       .  T
C423        N432   1.157       .  T
C424        N430   1.157       .  T
C433        C434   1.411       .  A
C433        C438   1.413       .  A
C433        C451   1.451       .  S
C434        C435   1.413   1_545  A
C434        C439   1.505       .  S
C435        C436   1.415       .  A
C435        C440   1.451       .  S
C436        C437   1.418       .  A
C436        C452   1.451       .  S
C437        C438   1.419   1_565  A
C438        C441   1.451       .  S
C439        C442   1.413   1_545  A
C439        C446   1.413       .  A
C440        N457   1.157       .  T
C441        N459   1.157       .  T
C442        C443   1.413       .  A
C442        C447   1.450       .  S
C443        C444   1.414   1_565  A
C443        C449   1.450       .  S
C444        C445   1.415       .  A
C445        C446   1.413       .  A
C445        C448   1.451       .  S
C446        C450   1.451       .  S
C447        N454   1.157       .  T
C448        N455   1.157       .  T
C449        N453   1.157       .  T
C450        N456   1.157       .  T
C451        N460   1.157       .  T
C452        N458   1.157       .  T
C461        C462   1.411   1_545  A
C461        C466   1.408       .  A
C461        C479   1.451       .  S
C462        C463   1.412       .  A
C462        C467   1.494       .  S
C463        C464   1.410       .  A
C463        C468   1.450       .  S
C464        C465   1.412       .  A
C464        C480   1.450       .  S
C465        C466   1.411   1_565  A
C466        C469   1.451       .  S
C467        C470   1.411       .  A
C467        C474   1.412       .  A
C468        N485   1.157       .  T
C469        N487   1.157       .  T
C470        C471   1.410   1_565  A
C470        C475   1.450   1_565  S
C471        C472   1.411   1_545  A
C471        C477   1.451       .  S
C472        C473   1.411       .  A
C473        C474   1.410       .  A
C473        C476   1.451       .  S
C474        C478   1.451       .  S
C475        N482   1.157       .  T
C476        N483   1.157       .  T
C477        N481   1.157       .  T
C478        N484   1.157       .  T
C479        N488   1.157       .  T
C480        N486   1.157       .  T
C489        C490   1.411       .  A
C489        C494   1.409       .  A
C489        C507   1.451       .  S
C490        C491   1.411   1_545  A
C490        C495   1.494   1_545  S
C491        C492   1.410       .  A
C491        C496   1.450       .  S
C492        C493   1.413   1_565  A
C492        C508   1.451       .  S
C493        C494   1.414       .  A
C494        C497   1.451       .  S
C495        C498   1.410   1_565  A
C495        C502   1.411       .  A
C496        N513   1.157       .  T
C497        N515   1.157       .  T
C498        C499   1.410       .  A
C498        C503   1.451       .  S
C499        C500   1.416   1_545  A
C499        C505   1.452       .  S
C500        C501   1.414       .  A
C501        C502   1.410       .  A
C501        C504   1.451       .  S
C502        C506   1.451       .  S
C503        N510   1.157       .  T
C504        N511   1.157       .  T
C505        N509   1.158       .  T
C506        N512   1.157       .  T
C507        N516   1.157       .  T
C508        N514   1.157       .  T
C517        C518   1.411   1_545  A
C517        C522   1.410       .  A
C517        C535   1.450       .  S
C518        C519   1.412       .  A
C518        C523   1.495       .  S
C519        C520   1.410       .  A
C519        C524   1.450       .  S
C520        C521   1.411       .  A
C520        C536   1.451       .  S
C521        C522   1.411   1_565  A
C522        C525   1.451       .  S
C523        C526   1.411       .  A
C523        C530   1.410   1_565  A
C524        N541   1.157       .  T
C525        N543   1.157       .  T
C526        C527   1.412       .  A
C526        C531   1.450       .  S
C527        C528   1.412       .  A
C527        C533   1.449       .  S
C528        C529   1.413   1_565  A
C529        C530   1.410       .  A
C529        C532   1.450       .  S
C530        C534   1.450       .  S
C531        N538   1.157       .  T
C532        N539   1.157       .  T
C533        N537   1.157       .  T
C534        N540   1.157       .  T
C535        N544   1.157       .  T
C536        N542   1.157       .  T
C545        C546   1.410   1_655  A
C545        C550   1.411       .  A
C545        C563   1.452       .  S
C546        C547   1.411       .  A
C546        C551   1.500       .  S
C547        C548   1.413       .  A
C547        C552   1.452       .  S
C548        C549   1.420       .  A
C548        C564   1.451       .  S
C549        C550   1.419   1_455  A
C550        C553   1.450       .  S
C551        C554   1.412   1_455  A
C551        C558   1.413       .  A
C552        N569   1.157       .  T
C553        N571   1.157       .  T
C554        C555   1.409       .  A
C554        C559   1.451       .  S
C555        C556   1.414   1_655  A
C555        C561   1.450       .  S
C556        C557   1.414       .  A
C557        C558   1.412       .  A
C557        C560   1.450       .  S
C558        C562   1.450       .  S
C559        N566   1.157       .  T
C560        N567   1.157       .  T
C561        N565   1.157       .  T
C562        N568   1.157       .  T
C563        N572   1.157       .  T
C564        N570   1.158       .  T
C573        C574   1.409       .  A
C573        C578   1.411       .  A
C573        C591   1.452       .  S
C574        C575   1.410   1_655  A
C574        C579   1.495       .  S
C575        C576   1.410       .  A
C575        C580   1.452       .  S
C576        C577   1.418   1_455  A
C576        C592   1.451       .  S
C577        C578   1.418       .  A
C578        C581   1.450       .  S
C579        C582   1.412   1_655  A
C579        C586   1.411       .  A
C580        N597   1.157       .  T
C581        N599   1.157       .  T
C582        C583   1.410       .  A
C582        C587   1.450       .  S
C583        C584   1.412       .  A
C583        C589   1.450       .  S
C584        C585   1.412   1_455  A
C585        C586   1.407       .  A
C585        C588   1.450       .  S
C586        C590   1.450       .  S
C587        N594   1.157       .  T
C588        N595   1.157       .  T
C589        N593   1.157       .  T
C590        N596   1.157       .  T
C591        N600   1.157       .  T
C592        N598   1.157       .  T
C601        C602   1.412       .  A
C601        C606   1.414       .  A
C601        C619   1.450       .  S
C602        C603   1.409       .  A
C602        C607   1.505       .  S
C603        C604   1.412       .  A
C603        C608   1.452       .  S
C604        C605   1.424       .  A
C604        C620   1.451       .  S
C605        C606   1.420       .  A
C606        C609   1.452       .  S
C607        C610   1.403       .  A
C607        C614   1.399       .  A
C608        N625   1.157       .  T
C609        N627   1.158       .  T
C610        C611   1.418       .  A
C610        C615   1.456       .  S
C611        C612   1.448       .  A
C611        C617   1.448       .  S
C612        C613   1.452       .  A
C613        C614   1.417       .  A
C613        C616   1.451       .  S
C614        C618   1.454       .  S
C615        N622   1.157       .  T
C616        N623   1.157       .  T
C617        N621   1.158   1_455  T
C618        N624   1.157       .  T
C619        N628   1.157       .  T
C620        N626   1.158       .  T
C629        C630   1.398       .  A
C629        C634   1.418       .  A
C629        C647   1.458       .  S
C630        C631   1.397       .  A
C630        C635   1.502       .  S
C631        C632   1.417       .  A
C631        C636   1.456       .  S
C632        C633   1.450       .  A
C632        C648   1.449       .  S
C633        C634   1.456       .  A
C634        C637   1.451       .  S
C635        C638   1.412       .  A
C635        C642   1.410       .  A
C636        N653   1.157       .  T
C637        N655   1.158       .  T
C638        C639   1.413       .  A
C638        C643   1.451       .  S
C639        C640   1.416       .  A
C639        C645   1.450       .  S
C640        C641   1.417       .  A
C641        C642   1.410       .  A
C641        C644   1.451       .  S
C642        C646   1.451       .  S
C643        N650   1.157       .  T
C644        N651   1.157       .  T
C645        N649   1.157       .  T
C646        N652   1.157       .  T
C647        N656   1.157       .  T
C648        N654   1.157       .  T
C657        C658   1.408       .  A
C657        C662   1.410       .  A
C657        C675   1.452       .  S
C658        C659   1.410       .  A
C658        C663   1.496       .  S
C659        C660   1.411       .  A
C659        C664   1.451       .  S
C660        C661   1.418       .  A
C660        C676   1.451       .  S
C661        C662   1.421       .  A
C662        C665   1.452       .  S
C663        C666   1.412       .  A
C663        C670   1.410       .  A
C664        N681   1.157       .  T
C665        N683   1.158       .  T
C666        C667   1.412       .  A
C666        C671   1.450       .  S
C667        C668   1.414       .  A
C667        C673   1.450       .  S
C668        C669   1.414       .  A
C669        C670   1.407       .  A
C669        C672   1.450       .  S
C670        C674   1.452       .  S
C671        N678   1.157       .  T
C672        N679   1.157       .  T
C673        N677   1.157       .  T
C674        N680   1.157       .  T
C675        N684   1.157       .  T
C676        N682   1.157       .  T
C685        C686   1.411       .  A
C685        C690   1.408       .  A
C685        C703   1.451       .  S
C686        C687   1.412       .  A
C686        C691   1.492       .  S
C687        C688   1.407       .  A
C687        C692   1.451       .  S
C688        C689   1.412       .  A
C688        C704   1.450       .  S
C689        C690   1.411       .  A
C690        C693   1.450       .  S
C691        C694   1.408       .  A
C691        C698   1.411       .  A
C692        N709   1.157       .  T
C693        N711   1.157       .  T
C694        C695   1.407       .  A
C694        C699   1.452       .  S
C695        C696   1.418       .  A
C695        C701   1.450       .  S
C696        C697   1.416       .  A
C697        C698   1.410       .  A
C697        C700   1.451       .  S
C698        C702   1.452       .  S
C699        N706   1.157       .  T
C700        N707   1.157       .  T
C701        N705   1.156       .  T
C702        N708   1.157       .  T
C703        N712   1.157       .  T
C704        N710   1.157       .  T
C713        C714   1.412       .  A
C713        C718   1.410       .  A
C713        C731   1.450       .  S
C714        C715   1.413       .  A
C714        C719   1.496       .  S
C715        C716   1.408       .  A
C715        C720   1.451       .  S
C716        C717   1.410       .  A
C716        C732   1.450       .  S
C717        C718   1.412       .  A
C718        C721   1.450       .  S
C719        C722   1.412       .  A
C719        C726   1.413       .  A
C720        N737   1.157       .  T
C721        N739   1.157       .  T
C722        C723   1.410       .  A
C722        C727   1.450       .  S
C723        C724   1.411       .  A
C723        C729   1.452       .  S
C724        C725   1.410       .  A
C725        C726   1.409       .  A
C725        C728   1.451       .  S
C726        C730   1.451       .  S
C727        N734   1.157       .  T
C728        N735   1.157       .  T
C729        N733   1.157       .  T
C730        N736   1.157       .  T
C731        N740   1.157       .  T
C732        N738   1.157       .  T
C741        C742   1.411       .  A
C741        C746   1.409       .  A
C741        C759   1.450       .  S
C742        C743   1.412       .  A
C742        C747   1.494       .  S
C743        C744   1.408       .  A
C743        C748   1.451       .  S
C744        C745   1.412       .  A
C744        C760   1.451       .  S
C745        C746   1.414       .  A
C746        C749   1.451       .  S
C747        C750   1.409       .  A
C747        C754   1.410       .  A
C748        N765   1.157       .  T
C749        N767   1.157       .  T
C750        C751   1.412       .  A
C750        C755   1.452       .  S
C751        C752   1.419       .  A
C751        C757   1.449       .  S
C752        C753   1.415       .  A
C753        C754   1.408       .  A
C753        C756   1.451       .  S
C754        C758   1.451       .  S
C755        N762   1.157       .  T
C756        N763   1.157       .  T
C757        N761   1.156       .  T
C758        N764   1.157       .  T
C759        N768   1.157       .  T
C760        N766   1.157       .  T
C769        C770   1.399       .  A
C769        C774   1.419       .  A
C769        C787   1.454       .  S
C770        C771   1.396   1_455  A
C770        C775   1.499       .  S
C771        C772   1.414       .  A
C771        C776   1.458       .  S
C772        C773   1.454   1_655  A
C772        C788   1.447       .  S
C773        C774   1.450       .  A
C774        C777   1.449       .  S
C775        C778   1.412       .  A
C775        C782   1.412   1_455  A
C776        N793   1.157       .  T
C777        N795   1.157       .  T
C778        C779   1.411       .  A
C778        C783   1.451       .  S
C779        C780   1.412       .  A
C779        C785   1.450       .  S
C780        C781   1.414   1_455  A
C781        C782   1.410       .  A
C781        C784   1.452       .  S
C782        C786   1.450       .  S
C783        N790   1.157       .  T
C784        N791   1.157       .  T
C785        N789   1.157       .  T
C786        N792   1.157       .  T
C787        N796   1.157       .  T
C788        N794   1.157       .  T
C797        C798   1.401       .  A
C797        C802   1.420       .  A
C797        C815   1.454       .  S
C798        C799   1.403   1_655  A
C798        C803   1.510       .  S
C799        C800   1.418   1_455  A
C799        C804   1.455       .  S
C800        C801   1.447       .  A
C800        C816   1.446       .  S
C801        C802   1.451       .  A
C802        C805   1.450       .  S
C803        C806   1.414   1_655  A
C803        C810   1.411       .  A
C804        N821   1.157       .  T
C805        N823   1.157       .  T
C806        C807   1.416       .  A
C806        C811   1.450       .  S
C807        C808   1.418   1_455  A
C807        C813   1.452       .  S
C808        C809   1.423       .  A
C809        C810   1.413       .  A
C809        C812   1.451       .  S
C810        C814   1.453       .  S
C811        N818   1.157       .  T
C812        N819   1.158       .  T
C813        N817   1.158       .  T
C814        N820   1.157       .  T
C815        N824   1.157       .  T
C816        N822   1.157       .  T
C825        C826   1.400       .  A
C825        C830   1.419       .  A
C825        C843   1.454       .  S
C826        C827   1.398       .  A
C826        C831   1.504       .  S
C827        C828   1.416       .  A
C827        C832   1.458       .  S
C828        C829   1.454       .  A
C828        C844   1.448       .  S
C829        C830   1.449       .  A
C830        C833   1.450       .  S
C831        C834   1.413       .  A
C831        C838   1.412       .  A
C832        N849   1.157       .  T
C833        N851   1.157       .  T
C834        C835   1.414       .  A
C834        C839   1.451       .  S
C835        C836   1.415       .  A
C835        C841   1.451       .  S
C836        C837   1.415       .  A
C837        C838   1.411       .  A
C837        C840   1.451       .  S
C838        C842   1.451       .  S
C839        N846   1.157       .  T
C840        N847   1.157       .  T
C841        N845   1.157       .  T
C842        N848   1.157       .  T
C843        N852   1.157       .  T
C844        N850   1.157       .  T
C853        C854   1.399       .  A
C853        C858   1.420       .  A
C853        C871   1.456       .  S
C854        C855   1.399       .  A
C854        C859   1.503       .  S
C855        C856   1.417       .  A
C855        C860   1.455       .  S
C856        C857   1.450       .  A
C856        C872   1.451       .  S
C857        C858   1.451       .  A
C858        C861   1.447       .  S
C859        C862   1.407       .  A
C859        C866   1.410       .  A
C860        N877   1.157       .  T
C861        N879   1.158   1_655  T
C862        C863   1.411       .  A
C862        C867   1.452       .  S
C863        C864   1.426       .  A
C863        C869   1.452       .  S
C864        C865   1.424       .  A
C865        C866   1.414       .  A
C865        C868   1.452       .  S
C866        C870   1.450       .  S
C867        N874   1.157       .  T
C868        N875   1.158       .  T
C869        N873   1.158       .  T
C870        N876   1.157       .  T
C871        N880   1.157       .  T
C872        N878   1.157       .  T
C881        C882   1.412       .  A
C881        C886   1.410       .  A
C881        C899   1.451       .  S
C882        C883   1.413   1_545  A
C882        C887   1.499       .  S
C883        C884   1.410       .  A
C883        C888   1.449       .  S
C884        C885   1.410   1_565  A
C884        C900   1.452       .  S
C885        C886   1.413       .  A
C886        C889   1.451       .  S
C887        C890   1.399   1_545  A
C887        C894   1.397       .  A
C888        N905   1.157       .  T
C889        N907   1.157       .  T
C890        C891   1.418       .  A
C890        C895   1.455       .  S
C891        C892   1.451   1_565  A
C891        C897   1.449       .  S
C892        C893   1.449       .  A
C893        C894   1.416       .  A
C893        C896   1.443       .  S
C894        C898   1.457       .  S
C895        N902   1.157       .  T
C896        N903   1.156       .  T
C897        N901   1.157       .  T
C898        N904   1.157       .  T
C899        N908   1.157       .  T
C900        N906   1.157       .  T
C909        C910   1.402   1_565  A
C909        C914   1.411       .  A
C909        C927   1.456       .  S
C910        C911   1.403       .  A
C910        C915   1.506       .  S
C911        C912   1.419       .  A
C911        C916   1.453       .  S
C912        C913   1.449   1_545  A
C912        C928   1.450       .  S
C913        C914   1.446       .  A
C914        C917   1.446       .  S
C915        C918   1.411       .  A
C915        C922   1.412   1_545  A
C916        N933   1.157       .  T
C917        N935   1.157       .  T
C918        C919   1.413       .  A
C918        C923   1.451       .  S
C919        C920   1.420       .  A
C919        C925   1.451       .  S
C920        C921   1.421   1_545  A
C921        C922   1.412       .  A
C921        C924   1.451       .  S
C922        C926   1.452       .  S
C923        N930   1.157       .  T
C924        N931   1.158       .  T
C925        N929   1.157       .  T
C926        N932   1.157       .  T
C927        N936   1.157       .  T
C928        N934   1.157       .  T
C937        C938   1.398       .  A
C937        C942   1.417       .  A
C937        C955   1.456       .  S
C938        C939   1.402       .  A
C938        C943   1.505       .  S
C939        C940   1.422       .  A
C939        C944   1.454       .  S
C940        C941   1.449       .  A
C940        C956   1.449       .  S
C941        C942   1.451       .  A
C942        C945   1.447       .  S
C943        C946   1.413       .  A
C943        C950   1.415       .  A
C944        N961   1.157       .  T
C945        N963   1.157       .  T
C946        C947   1.413       .  A
C946        C951   1.450       .  S
C947        C948   1.413       .  A
C947        C953   1.451       .  S
C948        C949   1.409       .  A
C949        C950   1.411       .  A
C949        C952   1.452       .  S
C950        C954   1.448       .  S
C951        N958   1.157       .  T
C952        N959   1.157       .  T
C953        N957   1.157       .  T
C954        N960   1.157       .  T
C955        N964   1.157       .  T
C956        N962   1.157   1_545  T
C965        C966   1.411       .  A
C965        C970   1.412       .  A
C965        C983   1.449       .  S
C966        C967   1.412       .  A
C966        C971   1.501       .  S
C967        C968   1.411       .  A
C967        C972   1.452       .  S
C968        C969   1.415       .  A
C968        C984   1.451       .  S
C969        C970   1.415       .  A
C970        C973   1.452       .  S
C971        C974   1.401       .  A
C971        C978   1.398       .  A
C972        N989   1.157       .  T
C973        N991   1.157       .  T
C974        C975   1.420       .  A
C974        C979   1.453       .  S
C975        C976   1.448       .  A
C975        C981   1.449       .  S
C976        C977   1.449       .  A
C977        C978   1.413       .  A
C977        C980   1.446       .  S
C978        C982   1.457       .  S
C979        N986   1.157       .  T
C980        N987   1.156       .  T
C981        N985   1.157       .  T
C982        N988   1.157       .  T
C983        N992   1.157       .  T
C984        N990   1.157       .  T
C993        C994   1.409       .  A
C993        C998   1.409       .  A
C993       C1011   1.451       .  S
C994        C995   1.411       .  A
C994        C999   1.493       .  S
C995        C996   1.410       .  A
C995       C1000   1.451       .  S
C996        C997   1.415       .  A
C996       C1012   1.451       .  S
C997        C998   1.416       .  A
C998       C1001   1.451       .  S
C999       C1002   1.411       .  A
C999       C1006   1.412       .  A
C1000      N1017   1.157       .  T
C1001      N1019   1.157       .  T
C1002      C1003   1.409       .  A
C1002      C1007   1.450       .  S
C1003      C1004   1.413       .  A
C1003      C1009   1.451       .  S
C1004      C1005   1.412       .  A
C1005      C1006   1.407       .  A
C1005      C1008   1.451       .  S
C1006      C1010   1.451       .  S
C1007      N1014   1.157       .  T
C1008      N1015   1.157       .  T
C1009      N1013   1.157       .  T
C1010      N1016   1.157       .  T
C1011      N1020   1.157       .  T
C1012      N1018   1.157       .  T
C1021      C1022   1.412       .  A
C1021      C1026   1.412       .  A
C1021      C1039   1.450       .  S
C1022      C1023   1.413       .  A
C1022      C1027   1.499       .  S
C1023      C1024   1.410       .  A
C1023      C1028   1.450       .  S
C1024      C1025   1.410       .  A
C1024      C1040   1.451       .  S
C1025      C1026   1.411       .  A
C1026      C1029   1.450       .  S
C1027      C1030   1.412       .  A
C1027      C1034   1.413       .  A
C1028      N1045   1.157       .  T
C1029      N1047   1.157       .  T
C1030      C1031   1.410       .  A
C1030      C1035   1.450       .  S
C1031      C1032   1.412       .  A
C1031      C1037   1.450       .  S
C1032      C1033   1.411       .  A
C1033      C1034   1.411       .  A
C1033      C1036   1.450       .  S
C1034      C1038   1.450       .  S
C1035      N1042   1.157       .  T
C1036      N1043   1.157       .  T
C1037      N1041   1.157       .  T
C1038      N1044   1.157       .  T
C1039      N1048   1.157       .  T
C1040      N1046   1.157       .  T
C1049      C1050   1.410       .  A
C1049      C1054   1.411       .  A
C1049      C1067   1.450       .  S
C1050      C1051   1.411       .  A
C1050      C1055   1.492       .  S
C1051      C1052   1.407       .  A
C1051      C1056   1.452       .  S
C1052      C1053   1.412       .  A
C1052      C1068   1.451       .  S
C1053      C1054   1.414       .  A
C1054      C1057   1.452       .  S
C1055      C1058   1.410       .  A
C1055      C1062   1.411       .  A
C1056      N1073   1.157       .  T
C1057      N1075   1.157       .  T
C1058      C1059   1.408       .  A
C1058      C1063   1.450       .  S
C1059      C1060   1.412       .  A
C1059      C1065   1.450       .  S
C1060      C1061   1.413       .  A
C1061      C1062   1.409       .  A
C1061      C1064   1.450       .  S
C1062      C1066   1.451       .  S
C1063      N1070   1.157       .  T
C1064      N1071   1.157       .  T
C1065      N1069   1.157       .  T
C1066      N1072   1.157       .  T
C1067      N1076   1.157       .  T
C1068      N1074   1.157       .  T
C1077      C1078   1.411       .  A
C1077      C1082   1.409       .  A
C1077      C1095   1.450       .  S
C1078      C1079   1.412       .  A
C1078      C1083   1.495       .  S
C1079      C1080   1.410       .  A
C1079      C1084   1.450       .  S
C1080      C1081   1.411       .  A
C1080      C1096   1.450       .  S
C1081      C1082   1.411       .  A
C1082      C1085   1.450       .  S
C1083      C1086   1.412       .  A
C1083      C1090   1.411       .  A
C1084      N1101   1.157       .  T
C1085      N1103   1.157       .  T
C1086      C1087   1.411       .  A
C1086      C1091   1.450       .  S
C1087      C1088   1.411       .  A
C1087      C1093   1.451       .  S
C1088      C1089   1.410       .  A
C1089      C1090   1.409       .  A
C1089      C1092   1.451       .  S
C1090      C1094   1.450       .  S
C1091      N1098   1.157       .  T
C1092      N1099   1.157       .  T
C1093      N1097   1.157       .  T
C1094      N1100   1.157       .  T
C1095      N1104   1.157       .  T
C1096      N1102   1.157       .  T
C1105      C1106   1.411       .  A
C1105      C1110   1.414       .  A
C1105      C1123   1.452       .  S
C1106      C1107   1.412   1_565  A
C1106      C1111   1.508       .  S
C1107      C1108   1.413       .  A
C1107      C1112   1.451       .  S
C1108      C1109   1.420       .  A
C1108      C1124   1.449       .  S
C1109      C1110   1.424   1_545  A
C1110      C1113   1.451       .  S
C1111      C1114   1.401   1_565  A
C1111      C1118   1.402       .  A
C1112      N1129   1.157       .  T
C1113      N1131   1.158       .  T
C1114      C1115   1.417       .  A
C1114      C1119   1.454       .  S
C1115      C1116   1.450   1_545  A
C1115      C1121   1.449       .  S
C1116      C1117   1.447       .  A
C1117      C1118   1.417       .  A
C1117      C1120   1.444       .  S
C1118      C1122   1.455       .  S
C1119      N1126   1.157       .  T
C1120      N1127   1.157       .  T
C1121      N1125   1.157       .  T
C1122      N1128   1.157       .  T
C1123      N1132   1.157       .  T
C1124      N1130   1.157       .  T
C1133      C1134   1.398       .  A
C1133      C1138   1.417       .  A
C1133      C1151   1.454       .  S
C1134      C1135   1.399   1_565  A
C1134      C1139   1.500       .  S
C1135      C1136   1.417       .  A
C1135      C1140   1.457       .  S
C1136      C1137   1.448       .  A
C1136      C1152   1.443       .  S
C1137      C1138   1.450   1_545  A
C1138      C1141   1.451       .  S
C1139      C1142   1.412   1_565  A
C1139      C1146   1.413       .  A
C1140      N1157   1.157       .  T
C1141      N1159   1.157       .  T
C1142      C1143   1.410       .  A
C1142      C1147   1.452       .  S
C1143      C1144   1.415   1_545  A
C1143      C1149   1.451       .  S
C1144      C1145   1.412       .  A
C1145      C1146   1.411       .  A
C1145      C1148   1.452       .  S
C1146      C1150   1.449       .  S
C1147      N1154   1.157       .  T
C1148      N1155   1.157       .  T
C1149      N1153   1.157       .  T
C1150      N1156   1.157       .  T
C1151      N1160   1.157       .  T
C1152      N1158   1.156       .  T
C1161      C1162   1.395       .  A
C1161      C1166   1.414       .  A
C1161      C1179   1.456       .  S
C1162      C1163   1.399       .  A
C1162      C1167   1.496       .  S
C1163      C1164   1.418       .  A
C1163      C1168   1.455       .  S
C1164      C1165   1.448       .  A
C1164      C1180   1.448       .  S
C1165      C1166   1.452       .  A
C1166      C1169   1.449       .  S
C1167      C1170   1.411       .  A
C1167      C1174   1.411       .  A
C1168      N1185   1.157       .  T
C1169      N1187   1.157       .  T
C1170      C1171   1.410       .  A
C1170      C1175   1.451       .  S
C1171      C1172   1.415       .  A
C1171      C1177   1.451       .  S
C1172      C1173   1.410       .  A
C1173      C1174   1.408       .  A
C1173      C1176   1.452       .  S
C1174      C1178   1.449       .  S
C1175      N1182   1.157       .  T
C1176      N1183   1.157       .  T
C1177      N1181   1.157       .  T
C1178      N1184   1.157       .  T
C1179      N1188   1.157       .  T
C1180      N1186   1.157       .  T
C1189      C1190   1.411       .  A
C1189      C1194   1.407       .  A
C1189      C1207   1.451       .  S
C1190      C1191   1.413       .  A
C1190      C1195   1.492       .  S
C1191      C1192   1.407       .  A
C1191      C1196   1.449       .  S
C1192      C1193   1.406       .  A
C1192      C1208   1.451       .  S
C1193      C1194   1.412       .  A
C1194      C1197   1.452       .  S
C1195      C1198   1.395       .  A
C1195      C1202   1.400       .  A
C1196      N1213   1.157       .  T
C1197      N1215   1.158       .  T
C1198      C1199   1.410       .  A
C1198      C1203   1.457       .  S
C1199      C1200   1.452       .  A
C1199      C1205   1.449       .  S
C1200      C1201   1.446       .  A
C1201      C1202   1.417       .  A
C1201      C1204   1.448       .  S
C1202      C1206   1.455       .  S
C1203      N1210   1.157       .  T
C1204      N1211   1.157   1_565  T
C1205      N1209   1.156       .  T
C1206      N1212   1.157       .  T
C1207      N1216   1.157       .  T
C1208      N1214   1.157       .  T
