geometry optimzed in LAMMPS
_audit_creation_date              2020-12-01 
_audit_creation_method            'lammps2cif' 
_symmetry_space_group_name_H-M    'P1' 
_symmetry_Int_Tables_number       1 
_symmetry_cell_setting            triclinic 
loop_ 
_symmetry_equiv_pos_as_xyz 
  x,y,z 
_cell_length_a                    39.48299214 
_cell_length_b                    39.106880489790434 
_cell_length_c                    39.979781172639946 
_cell_angle_alpha                 89.88942303351324 
_cell_angle_beta                  89.7964154317582 
_cell_angle_gamma                 90.09123541091421 
loop_ 
_atom_site_label 
_atom_site_type_symbol 
_atom_site_fract_x 
_atom_site_fract_y 
_atom_site_fract_z 
_atom_site_charge 
O1          O  0.44389283  0.42797097  0.93444499    -0.74300
O2          O  0.47550362  0.45598021  0.89534506    -0.53200
C3          C  0.45171399  0.43520211  0.90395728     0.79400
O4          O  0.44440988  0.56348568  0.04379473    -0.58900
O5          O  0.47462717  0.53445937  0.08303687    -0.52000
C6          C  0.45258133  0.55691996  0.07424887     0.71400
O7          O  0.44463978  0.55913026  0.93194630    -0.73500
O8          O  0.47654242  0.52997824  0.89391435    -0.54000
C9          C  0.45335188  0.55159390  0.90185713     0.77400
O10         O  0.44851807  0.42451273  0.04653619    -0.58600
O11         O  0.47579587  0.45772167  0.08476269    -0.51700
C12         C  0.45517646  0.43363017  0.07668726     0.74000
Zr13       Zr  0.46385863  0.44231424  0.99022038     2.54700
O14         O  0.40235720  0.43938617  0.99364435    -0.79200
O15         O  0.46929893  0.38037078  0.98681824    -0.92600
Zr16       Zr  0.46147981  0.54420404  0.98836233     2.64700
O17         O  0.39983062  0.54221086  0.98767147    -0.97600
O18         O  0.46398414  0.60638894  0.98554546    -0.79600
O19         O  0.46209552  0.49266004  0.95721021    -0.83000
O20         O  0.46110730  0.49384421  0.02140022    -2.17700
O21         O  0.58037807  0.42948868  0.04806994    -0.66400
O22         O  0.54985691  0.46102127  0.08527563    -0.50900
C23         C  0.57235989  0.43848874  0.07803803     0.72400
O24         O  0.58063796  0.55998126  0.93235294    -0.59300
O25         O  0.55064583  0.52936829  0.89408956    -0.51300
C26         C  0.57337543  0.55132560  0.90214505     0.74200
O27         O  0.57720881  0.56550014  0.04561133    -0.70700
O28         O  0.54693689  0.53520537  0.08421106    -0.49400
C29         C  0.56896238  0.55797866  0.07599737     0.75600
O30         O  0.58532784  0.43105296  0.93531036    -0.66000
O31         O  0.55273176  0.45714949  0.89586800    -0.53200
C32         C  0.57714212  0.43740784  0.90476568     0.74000
Zr33       Zr  0.56412676  0.44480127  0.99113021     2.77500
O34         O  0.62552228  0.44168550  0.99624263    -0.96800
O35         O  0.55753656  0.38296786  0.98871483    -0.77600
Zr36       Zr  0.56201142  0.54679617  0.98913976     2.70100
O37         O  0.62361551  0.54900373  0.99011444    -0.78800
O38         O  0.55821169  0.60891222  0.98622707    -0.97900
Zr39       Zr  0.51339312  0.49313828  0.92609304     2.21500
Zr40       Zr  0.51186942  0.49604332  0.05307618     2.11100
O41         O  0.56350392  0.49649709  0.02210943    -2.46600
O42         O  0.56412499  0.49518964  0.95805522    -0.78600
O43         O  0.51359187  0.44355364  0.02326040    -0.70800
O44         O  0.51211263  0.54549380  0.95636380    -2.31800
O45         O  0.51440541  0.44190171  0.95814375    -2.28000
O46         O  0.51130103  0.54712137  0.02100217    -0.72600
H47         H  0.44139438  0.49360993  0.03583726     0.79400
H48         H  0.51191488  0.56485639  0.94133051     0.80500
H49         H  0.58291578  0.49731021  0.03676058     0.82700
H50         H  0.51498404  0.42197564  0.94381940     0.80300
H51         H  0.47233713  0.61366603  0.00774874     0.43400
H52         H  0.54057126  0.61354126  0.96928824     0.42300
H53         H  0.63082380  0.52697097  0.98024451     0.42000
H54         H  0.63141813  0.41819390  0.98912721     0.40000
H55         H  0.58089224  0.37412451  0.98630398     0.43100
H56         H  0.44576582  0.37187147  0.98476096     0.37900
H57         H  0.39708478  0.41462572  0.99355372     0.44000
H58         H  0.39426682  0.52657028  0.96902250     0.40400
H59         H  0.63437097  0.45660688  0.97817854     0.45300
H60         H  0.47646719  0.37312188  0.00944881     0.44100
H61         H  0.39349670  0.52924558  0.00805212     0.44200
H62         H  0.54766565  0.61572752  0.00770363     0.44500
O63         O  0.44432240  0.94547367  0.43008659    -0.74300
O64         O  0.47257924  0.90576778  0.46098281    -0.53200
C65         C  0.45146956  0.91440837  0.43812646     0.79400
O66         O  0.57771135  0.06073833  0.43318941    -0.58900
O67         O  0.54789463  0.09941759  0.46411715    -0.52000
C68         C  0.57015168  0.09148590  0.44206190     0.71400
O69         O  0.57427132  0.94471822  0.42862396    -0.73500
O70         O  0.54499150  0.90554349  0.45948454    -0.54000
C71         C  0.56614201  0.91373970  0.43629662     0.77400
O72         O  0.44319979  0.06101963  0.43311071    -0.58600
O73         O  0.47415687  0.09993558  0.46232841    -0.51700
C74         C  0.45163193  0.09187450  0.44059861     0.74000
Zr75       Zr  0.45946499  0.00296152  0.44839749     2.54700
O76         O  0.46068581  0.00554166  0.38754986    -0.79200
O77         O  0.39783790  0.00125757  0.45015266    -0.92600
Zr78       Zr  0.56015834  0.00245830  0.44747950     2.64700
O79         O  0.55875688  0.00514217  0.38658185    -0.97600
O80         O  0.62173690  0.00024537  0.44835580    -0.79600
O81         O  0.50956162  0.96970619  0.44702971    -0.83000
O82         O  0.50998383  0.03565370  0.44753601    -2.17700
O83         O  0.44041531  0.05939886  0.56178580    -0.66400
O84         O  0.47248099  0.09877736  0.53413645    -0.50900
C85         C  0.44877786  0.09046870  0.55464052     0.72400
O86         O  0.57592043  0.94325166  0.56403736    -0.59300
O87         O  0.54476526  0.90448098  0.53483201    -0.51300
C88         C  0.56695466  0.91242188  0.55696146     0.74200
O89         O  0.57977660  0.05915088  0.56083870    -0.70700
O90         O  0.54716454  0.09889344  0.53469093    -0.49400
C91         C  0.57122175  0.09031084  0.55451965     0.75600
O92         O  0.44146548  0.94360283  0.56284886    -0.66000
O93         O  0.47137170  0.90472386  0.53249586    -0.53200
C94         C  0.44874188  0.91267850  0.55429365     0.74000
Zr95       Zr  0.45980207  0.00164012  0.54827352     2.77500
O96         O  0.46616730  0.00310078  0.60880319    -0.96800
O97         O  0.39835735  0.00020595  0.55273463    -0.77600
Zr98       Zr  0.56069193  0.00130441  0.54715309     2.70100
O99         O  0.55752697  0.00434712  0.60791968    -0.78800
O100        O  0.62227199  0.99763605  0.54742217    -0.97900
Zr101      Zr  0.50948773  0.93738748  0.49745239     2.21500
Zr102      Zr  0.51010357  0.06667270  0.49867002     2.11100
O103        O  0.51039121  0.03437247  0.54906905    -2.46600
O104        O  0.51007767  0.96843586  0.54840797    -0.78600
O105        O  0.45868257  0.03508344  0.49866949    -0.70800
O106        O  0.56110037  0.96893338  0.49701386    -2.31800
O107        O  0.45853683  0.96972269  0.49795531    -2.28000
O108        O  0.56129344  0.03474639  0.49763823    -0.72600
H109        H  0.51002805  0.05088792  0.42849011     0.79400
H110        H  0.58042676  0.95387251  0.49668790     0.80500
H111        H  0.51055842  0.04912886  0.56839297     0.82700
H112        H  0.43883679  0.95503606  0.49772303     0.80300
H113        H  0.62816021  0.01416296  0.46800208     0.43400
H114        H  0.62997465  0.01716874  0.53354502     0.42300
H115        H  0.56597519  0.98201749  0.61603155     0.42000
H116        H  0.44389893  0.99555566  0.61759608     0.40000
H117        H  0.39057721  0.99554625  0.52966986     0.43100
H118        H  0.39073801  0.00628102  0.42693403     0.37900
H119        H  0.43685108  0.00952844  0.38101503     0.44000
H120        H  0.54359598  0.98615680  0.37994140     0.40400
H121        H  0.48167796  0.98393643  0.61392486     0.45300
H122        H  0.39127876  0.02184096  0.46300609     0.44100
H123        H  0.54572596  0.02607825  0.38134670     0.44200
H124        H  0.62879056  0.00385449  0.57051949     0.44500
O125        O  0.95668376  0.58074282  0.42115546    -0.74300
O126        O  0.91780418  0.54867907  0.44954111    -0.53200
C127        C  0.92602269  0.57269291  0.42907489     0.79400
O128        O  0.06946013  0.44069461  0.41819074    -0.58900
O129        O  0.10860587  0.47136693  0.44720982    -0.52000
C130        C  0.10021787  0.44860456  0.42557445     0.71400
O131        O  0.95553899  0.44259843  0.41544722    -0.73500
O132        O  0.91688012  0.47182322  0.44652446    -0.54000
C133        C  0.92492086  0.44974408  0.42414976     0.77400
O134        O  0.07042190  0.57896457  0.42102848    -0.58600
O135        O  0.10878117  0.54684558  0.44960772    -0.51700
C136        C  0.10094548  0.57025231  0.42835525     0.74000
Zr137      Zr  0.01329111  0.56167000  0.43695853     2.54700
O138        O  0.01474040  0.56249356  0.37610682    -0.79200
O139        O  0.01402301  0.62375632  0.44187602    -0.92600
Zr140      Zr  0.01245149  0.46005582  0.43185415     2.64700
O141        O  0.01580003  0.46833485  0.37158124    -0.97600
O142        O  0.00966513  0.39817945  0.42605884    -0.79600
O143        O  0.98000704  0.51110515  0.43308421    -0.83000
O144        O  0.04548728  0.51062540  0.43403369    -2.17700
O145        O  0.06872162  0.57021625  0.55529307    -0.66400
O146        O  0.10831986  0.54200910  0.52437503    -0.50900
C147        C  0.09953690  0.56250431  0.54798960     0.72400
O148        O  0.95449607  0.44152745  0.54949258    -0.59300
O149        O  0.91535386  0.47152250  0.52001696    -0.51300
C150        C  0.92381306  0.44967009  0.54254401     0.74200
O151        O  0.06770396  0.43729684  0.54799932    -0.70700
O152        O  0.10751114  0.46795666  0.51951720    -0.49400
C153        C  0.09852967  0.44503369  0.54089001     0.75600
O154        O  0.95444722  0.57233372  0.55249816    -0.66000
O155        O  0.91585329  0.54230051  0.52196758    -0.53200
C156        C  0.92394833  0.56393982  0.54464434     0.74000
Zr157      Zr  0.01196239  0.55631996  0.53623849     2.77500
O158        O  0.00996496  0.55317718  0.59705968    -0.96800
O159        O  0.01315872  0.61851715  0.53773481    -0.77600
Zr160      Zr  0.01153280  0.45456385  0.53080161     2.70100
O161        O  0.01133757  0.44596020  0.59112669    -0.78800
O162        O  0.01031912  0.39316781  0.52057841    -0.97900
Zr163      Zr  0.94833440  0.50830308  0.48366756     2.21500
Zr164      Zr  0.07682167  0.50783222  0.48469946     2.11100
O165        O  0.04413256  0.50522160  0.53481354    -2.46600
O166        O  0.97939217  0.50550679  0.53430553    -0.78600
O167        O  0.04558565  0.55978186  0.48696611    -0.70800
O168        O  0.97932340  0.45636978  0.48125167    -2.31800
O169        O  0.98013656  0.55989632  0.48640950    -2.28000
O170        O  0.04488803  0.45636188  0.48155233    -0.72600
H171        H  0.06041146  0.51137394  0.41484519     0.79400
H172        H  0.96446033  0.43671325  0.48055751     0.80500
H173        H  0.05832729  0.50394895  0.55433962     0.82700
H174        H  0.96553627  0.57964920  0.48738877     0.80300
H175        H  0.00693567  0.38961516  0.44923168     0.43400
H176        H  0.02083535  0.38286717  0.54064851     0.42300
H177        H  0.01340712  0.42090787  0.59410051     0.42000
H178        H  0.00076901  0.57557044  0.60417320     0.40000
H179        H  0.02824389  0.62513372  0.51898183     0.43100
H180        H  0.03359142  0.62874894  0.45650146     0.37900
H181        H  0.99789210  0.54507227  0.36936064     0.44000
H182        H  0.01484323  0.44491809  0.36225687     0.40400
H183        H  0.99161489  0.53662610  0.60204698     0.45300
H184        H  0.99397222  0.62934200  0.45575919     0.44100
H185        H  0.99379078  0.47866375  0.36548143     0.44200
H186        H  0.98612424  0.38667138  0.52218797     0.44500
C187        C  0.72884172  0.32645146  0.31873711     0.04100
C188        C  0.71413628  0.34121335  0.29027056    -0.12100
C189        C  0.68356205  0.32835015  0.27752293     0.01600
C190        C  0.66775451  0.30065712  0.29351104    -0.10600
C191        C  0.68249566  0.28574157  0.32173830     0.04100
C192        C  0.71304946  0.29845274  0.33409940    -0.10000
H193        H  0.72617466  0.36300452  0.27836678     0.09700
H194        H  0.64387726  0.29087497  0.28420610     0.07200
H195        H  0.72417152  0.28693234  0.35616355     0.07100
C196        C  0.72694334  0.67879717  0.31176014     0.04100
C197        C  0.71084009  0.70679844  0.32676676    -0.12100
C198        C  0.68013041  0.71934681  0.31416157     0.01600
C199        C  0.66642779  0.70454750  0.28526387    -0.10600
C200        C  0.68241877  0.67677537  0.26954043     0.04100
C201        C  0.71248605  0.66368138  0.28332246    -0.10000
H202        H  0.72191580  0.71833110  0.34879909     0.09700
H203        H  0.64291155  0.71437021  0.27524999     0.07200
H204        H  0.72446974  0.64150442  0.27224417     0.07100
C205        C  0.70040632  0.32125486  0.71588867     0.04100
C206        C  0.68666188  0.29168998  0.70133911    -0.12100
C207        C  0.70013876  0.27854022  0.67148668     0.01600
C208        C  0.72790936  0.29496321  0.65652417    -0.10600
C209        C  0.74181092  0.32448693  0.67079317     0.04100
C210        C  0.72841865  0.33713429  0.70083391    -0.10000
H211        H  0.66452546  0.27981708  0.71250460     0.09700
H212        H  0.73793923  0.28549078  0.63303684     0.07200
H213        H  0.73880646  0.36026514  0.71164477     0.07100
C214        C  0.34361417  0.72093061  0.31191065     0.04100
C215        C  0.31304831  0.70753019  0.32418723    -0.12100
C216        C  0.29763227  0.67958240  0.30850661     0.01600
C217        C  0.31248239  0.66571351  0.27974693    -0.10600
C218        C  0.34318863  0.67865898  0.26731072     0.04100
C219        C  0.35865204  0.70640475  0.28345102    -0.10000
H220        H  0.30193101  0.71808248  0.34674200     0.09700
H221        H  0.30007466  0.64473278  0.26701584     0.07200
H222        H  0.38243443  0.71650570  0.27405885     0.07100
C223        C  0.33324562  0.67422834  0.71661104     0.04100
C224        C  0.30349454  0.65988817  0.70388962    -0.12100
C225        C  0.28730683  0.67469283  0.67634956     0.01600
C226        C  0.30122453  0.70402313  0.66148105    -0.10600
C227        C  0.33115551  0.71856634  0.67390237     0.04100
C228        C  0.34690764  0.70372402  0.70178349    -0.10000
H229        H  0.29311662  0.63695677  0.71529076     0.09700
H230        H  0.28932598  0.71496186  0.63955254     0.07200
H231        H  0.37060415  0.71406224  0.71094091     0.07100
C232        C  0.32089316  0.32385257  0.71738725     0.04100
C233        C  0.33688874  0.29552107  0.70275942    -0.12100
C234        C  0.32511548  0.28176374  0.67260886     0.01600
C235        C  0.29714813  0.29681260  0.65690748    -0.10600
C236        C  0.28085876  0.32512823  0.67118925     0.04100
C237        C  0.29261697  0.33836416  0.70158207    -0.10000
H238        H  0.35918950  0.28469788  0.71436516     0.09700
H239        H  0.28853552  0.28706488  0.63304153     0.07200
H240        H  0.28053179  0.36069366  0.71227967     0.07100
C241        C  0.68984598  0.67224249  0.71241491     0.04100
C242        C  0.67383150  0.70098612  0.69864656    -0.12100
C243        C  0.68544824  0.71524861  0.66850212     0.01600
C244        C  0.71345435  0.70055548  0.65233361    -0.10600
C245        C  0.72981033  0.67221433  0.66631911     0.04100
C246        C  0.71830809  0.65840452  0.69657769    -0.10000
H247        H  0.65160360  0.71148348  0.71083643     0.09700
H248        H  0.72275255  0.71126354  0.62901670     0.07200
H249        H  0.73042342  0.63585415  0.70683591     0.07100
C250        C  0.33369274  0.27907210  0.31377928     0.04100
C251        C  0.34735342  0.29004527  0.28320439    -0.12100
C252        C  0.33286243  0.31742095  0.26583011     0.01600
C253        C  0.30356615  0.33299253  0.27838590    -0.10600
C254        C  0.28945774  0.32237390  0.30898481     0.04100
C255        C  0.30473591  0.29533391  0.32658033    -0.10000
H256        H  0.37025737  0.27829958  0.27360800     0.09700
H257        H  0.29255564  0.35430285  0.26492111     0.07200
H258        H  0.29459828  0.28741977  0.35058443     0.07100
C259        C  0.19649907  0.36572979  0.64978003    -0.27200
C260        C  0.20178187  0.37468926  0.61609921     0.06400
C261        C  0.23316819  0.36748240  0.60099155     0.26000
C262        C  0.25863900  0.35151384  0.61921215    -0.11700
C263        C  0.25340062  0.34240397  0.65277792    -0.25700
C264        C  0.22215420  0.34979894  0.66809789     0.36800
C265        C  0.17506706  0.39237172  0.59693393     0.06400
F266        F  0.23906852  0.37538421  0.56840207    -0.19500
H267        H  0.28267465  0.34636163  0.60709312     0.16200
F268        F  0.21625833  0.34110890  0.70048746    -0.23200
H269        H  0.17266655  0.37148449  0.66201680     0.18000
C270        C  0.14158736  0.38013088  0.59662460     0.26000
C271        C  0.11692841  0.39722757  0.57812330    -0.11700
C272        C  0.12526307  0.42652384  0.55925275    -0.25700
C273        C  0.15895411  0.43832228  0.55920766     0.36900
C274        C  0.18334596  0.42164595  0.57825700    -0.27400
F275        F  0.13285213  0.35125343  0.61350348    -0.19500
H276        H  0.09129784  0.38730005  0.57842694     0.16200
F277        F  0.16842353  0.46629281  0.54130313    -0.20900
H278        H  0.20887163  0.43181732  0.57854992     0.18000
C279        C  0.18564237  0.59090224  0.57958598    -0.27200
C280        C  0.17675155  0.60871958  0.60873243     0.06400
C281        C  0.14249946  0.61123656  0.61787324     0.26000
C282        C  0.11764822  0.59612700  0.59800525    -0.11700
C283        C  0.12644674  0.57821560  0.56867877    -0.25700
C284        C  0.16090972  0.57560997  0.55978978     0.36800
C285        C  0.20353650  0.62504270  0.62883533     0.06400
F286        F  0.13310594  0.62773489  0.64627625    -0.19500
H287        H  0.09144774  0.59833308  0.60580735     0.16200
F288        F  0.17090714  0.55876346  0.53180783    -0.23200
H289        H  0.21191406  0.58917948  0.57187289     0.18000
C290        C  0.23234729  0.60636931  0.63826214     0.26000
C291        C  0.25905267  0.62261213  0.65445286    -0.11700
C292        C  0.25762609  0.65774382  0.66135135    -0.25700
C293        C  0.22849079  0.67633985  0.65264544     0.36900
C294        C  0.20156114  0.65997419  0.63667159    -0.27400
F295        F  0.23484350  0.57247477  0.63142533    -0.19500
H296        H  0.28137727  0.60789459  0.66072432     0.16200
F297        F  0.22618368  0.71027646  0.65935686    -0.23200
H298        H  0.17965685  0.67482636  0.62936779     0.18000
C299        C  0.18897876  0.59977707  0.40292453    -0.27200
C300        C  0.18208515  0.61915641  0.37423122     0.06400
C301        C  0.14842006  0.62319757  0.36380275     0.26000
C302        C  0.12212037  0.60767767  0.38177284    -0.11700
C303        C  0.12894200  0.58790352  0.41046365    -0.25700
C304        C  0.16279437  0.58442817  0.42103326     0.36800
C305        C  0.21040411  0.63462265  0.35534429     0.06400
F306        F  0.14108758  0.64126575  0.33571828    -0.19500
H307        H  0.09644092  0.61068619  0.37281464     0.16200
F308        F  0.17077369  0.56646275  0.44898973    -0.23200
H309        H  0.21481210  0.59672835  0.41147111     0.18000
C310        C  0.21161938  0.67001275  0.34930515     0.26000
C311        C  0.23974455  0.68445390  0.33335384    -0.11700
C312        C  0.26698835  0.66384151  0.32323083    -0.25700
C313        C  0.26549984  0.62834997  0.32888918     0.36900
C314        C  0.23741009  0.61396446  0.34482354    -0.27400
F315        F  0.18633818  0.69075849  0.36010985    -0.19500
H316        H  0.24048052  0.71183815  0.32927265     0.16200
F317        F  0.29185177  0.60778742  0.32046812    -0.23200
H318        H  0.23692213  0.58665978  0.34945383     0.18000
C319        C  0.20663667  0.34174782  0.35354227    -0.27200
C320        C  0.20632285  0.37766679  0.35314010     0.06400
C321        C  0.23300572  0.39522590  0.33716315     0.26000
C322        C  0.25979811  0.37708922  0.32280662    -0.11700
C323        C  0.26030724  0.34113507  0.32356716    -0.25700
C324        C  0.23314510  0.32360119  0.33871306     0.36800
C325        C  0.17896953  0.39644469  0.37077071     0.06400
F326        F  0.23309760  0.42989137  0.33517697    -0.19500
H327        H  0.28045797  0.39126594  0.31147192     0.16200
F328        F  0.23195309  0.28891810  0.33887806    -0.23200
H329        H  0.18658427  0.32762170  0.36594082     0.18000
C330        C  0.14481334  0.38699699  0.36702938     0.26000
C331        C  0.11955930  0.40377591  0.38517698    -0.11700
C332        C  0.12766824  0.43047001  0.40734957    -0.25700
C333        C  0.16194856  0.43994495  0.41096360     0.36900
C334        C  0.18716665  0.42305552  0.39284666    -0.27400
F335        F  0.13571075  0.36190247  0.34541760    -0.19500
H336        H  0.09352700  0.39583533  0.38165496     0.16200
F337        F  0.17135377  0.46548051  0.43193959    -0.23200
H338        H  0.21333377  0.43038923  0.39663082     0.18000
C339        C  0.87062578  0.62890324  0.59052594    -0.27200
C340        C  0.84163058  0.60949924  0.59799019     0.06400
C341        C  0.84002932  0.57510935  0.58809360     0.26000
C342        C  0.86693283  0.56055815  0.57057217    -0.11700
C343        C  0.89599427  0.57990441  0.56315516    -0.25700
C344        C  0.89775969  0.61422450  0.57334812     0.36800
C345        C  0.81297282  0.62538851  0.61571599     0.06400
F346        F  0.81280647  0.55542251  0.59605483    -0.19500
H347        H  0.86530133  0.53393846  0.56324851     0.16200
F348        F  0.92516517  0.63381688  0.56580108    -0.23200
H349        H  0.87202395  0.65557822  0.59765743     0.18000
C350        C  0.81792947  0.64191976  0.64649276     0.26000
C351        C  0.79061790  0.65701296  0.66298662    -0.11700
C352        C  0.75827959  0.65619416  0.64874972    -0.25700
C353        C  0.75319978  0.63961780  0.61806947     0.36900
C354        C  0.78043901  0.62422520  0.60171113    -0.27400
F355        F  0.84902298  0.64289840  0.66083337    -0.19500
H356        H  0.79466715  0.66955440  0.68678142     0.16200
F357        F  0.72184578  0.63783636  0.60433219    -0.23200
H358        H  0.77624910  0.61164282  0.57795982     0.18000
C359        C  0.87876812  0.39296014  0.60560319    -0.27200
C360        C  0.84472523  0.39796676  0.59717097     0.06400
C361        C  0.83664597  0.42119772  0.57146456     0.26000
C362        C  0.86239551  0.43825230  0.55406815    -0.11700
C363        C  0.89661601  0.43242796  0.56187106    -0.25700
C364        C  0.90447197  0.40970564  0.58818799     0.36800
C365        C  0.81812026  0.37894214  0.61562801     0.06400
F366        F  0.80398859  0.42678393  0.56250050    -0.19500
H367        H  0.85546345  0.45568342  0.53416035     0.16200
F368        F  0.93694670  0.40348309  0.59740523    -0.23200
H369        H  0.88558106  0.37607196  0.62599312     0.18000
C370        C  0.82168319  0.34369880  0.62215961     0.26000
C371        C  0.79705017  0.32626032  0.64058774    -0.11700
C372        C  0.76845580  0.34351782  0.65269774    -0.25700
C373        C  0.76465145  0.37858830  0.64590749     0.36900
C374        C  0.78941209  0.39612588  0.62772533    -0.27400
F375        F  0.84864627  0.32592687  0.61023821    -0.19500
H376        H  0.80024050  0.29917829  0.64536659     0.16200
F377        F  0.73654087  0.39568804  0.65602466    -0.23200
H378        H  0.78626892  0.42327464  0.62339699     0.18000
C379        C  0.83687621  0.42039534  0.39965275    -0.27200
C380        C  0.84403203  0.39246383  0.37886230     0.06400
C381        C  0.87798368  0.38379531  0.37248286     0.26000
C382        C  0.90415790  0.40290272  0.38671698    -0.11700
C383        C  0.89699169  0.43066993  0.40794537    -0.25700
C384        C  0.86286266  0.43906053  0.41440193     0.36800
C385        C  0.81573657  0.37308359  0.36379709     0.06400
F386        F  0.88588240  0.35628693  0.35333922    -0.19500
H387        H  0.93006591  0.39547192  0.38156958     0.16200
F388        F  0.85428340  0.46525060  0.43498524    -0.23200
H389        H  0.81093618  0.42798151  0.40442858     0.18000
C390        C  0.78748722  0.36366685  0.38330934     0.26000
C391        C  0.75946051  0.34846474  0.36839548    -0.11700
C392        C  0.75934174  0.34154868  0.33397964    -0.25700
C393        C  0.78814341  0.34936910  0.31469011     0.36900
C394        C  0.81596533  0.36538403  0.32946986    -0.27400
F395        F  0.78701253  0.36898841  0.41685921    -0.19500
H396        H  0.73758176  0.34241964  0.38374731     0.16200
F397        F  0.78952187  0.34113345  0.28174678    -0.23200
H398        H  0.83740637  0.37237756  0.31392829     0.18000
C399        C  0.83809720  0.60613148  0.41036527    -0.27200
C400        C  0.84330258  0.62295979  0.37977935     0.06400
C401        C  0.87637729  0.62578599  0.36690638     0.26000
C402        C  0.90345837  0.61034255  0.38355315    -0.11700
C403        C  0.89800488  0.59196554  0.41335718    -0.25700
C404        C  0.86511654  0.59102921  0.42721202     0.36800
C405        C  0.81401364  0.63696806  0.36129439     0.06400
F406        F  0.88227462  0.64216925  0.33749586    -0.19500
H407        H  0.92850305  0.61183934  0.37249935     0.16200
F408        F  0.85894721  0.57557099  0.45707255    -0.23200
H409        H  0.81294254  0.60459645  0.42118244     0.18000
C410        C  0.78600094  0.61610124  0.35375246     0.26000
C411        C  0.75820924  0.62963701  0.33671690    -0.11700
C412        C  0.75770864  0.66421354  0.32727165    -0.25700
C413        C  0.78589340  0.68496604  0.33445257     0.36900
C414        C  0.81380874  0.67136696  0.35125626    -0.27400
F415        F  0.78563555  0.58257234  0.36263894    -0.19500
H416        H  0.73667093  0.61330284  0.33156989     0.16200
F417        F  0.78650891  0.71831498  0.32501265    -0.23200
H418        H  0.83510276  0.68784358  0.35691156     0.18000
C419        C  0.65526613  0.19443599  0.65523659    -0.27200
C420        C  0.64760369  0.19724403  0.62100472     0.06400
C421        C  0.65841421  0.22654144  0.60339945     0.26000
C422        C  0.67580846  0.25256518  0.61992689    -0.11700
C423        C  0.68316374  0.24983985  0.65417462    -0.25700
C424        C  0.67315910  0.22026619  0.67162963     0.36800
C425        C  0.62806032  0.16985194  0.60399580     0.06400
F426        F  0.65255230  0.22994762  0.57012245    -0.19500
H427        H  0.68309931  0.27519899  0.60597808     0.16200
F428        F  0.68099722  0.21616643  0.70442362    -0.23200
H429        H  0.64697539  0.17239542  0.66951817     0.18000
C430        C  0.63569480  0.13513927  0.60927746     0.26000
C431        C  0.61701061  0.10966358  0.59328882    -0.11700
C432        C  0.59045624  0.11803522  0.57139647    -0.25700
C433        C  0.58284135  0.15289208  0.56608432     0.36900
C434        C  0.60131128  0.17833294  0.58244565    -0.27400
F435        F  0.66180009  0.12570440  0.62924800    -0.19500
H436        H  0.62366862  0.08323403  0.59795148     0.16200
F437        F  0.55756397  0.16267142  0.54522961    -0.23200
H438        H  0.59439025  0.20481120  0.57846662     0.18000
C439        C  0.34257205  0.19873080  0.62695617    -0.27200
C440        C  0.37808379  0.19918700  0.62437764     0.06400
C441        C  0.39607185  0.22661765  0.63866913     0.26000
C442        C  0.37870759  0.25333290  0.65424676    -0.11700
C443        C  0.34319836  0.25291351  0.65658789    -0.25700
C444        C  0.32529458  0.22499224  0.64331612     0.36800
C445        C  0.39600757  0.17129774  0.60641983     0.06400
F446        F  0.43044816  0.22735186  0.63818565    -0.19500
H447        H  0.39307980  0.27453553  0.66432466     0.16200
F448        F  0.29114982  0.22271450  0.64676086    -0.23200
H449        H  0.32804712  0.17810277  0.61603171     0.18000
C450        C  0.38715412  0.13681918  0.61161516     0.26000
C451        C  0.40386405  0.11089073  0.59418908    -0.11700
C452        C  0.43016180  0.11857741  0.57157184    -0.25700
C453        C  0.43889171  0.15321417  0.56625889     0.36900
C454        C  0.42182399  0.17911932  0.58339039    -0.27400
F455        F  0.36307208  0.12799119  0.63435971    -0.19500
H456        H  0.39648571  0.08464257  0.59894773     0.16200
F457        F  0.46401248  0.16232657  0.54471801    -0.23200
H458        H  0.42868704  0.20546623  0.57839013     0.18000
C459        C  0.37702020  0.23102142  0.38404396    -0.27200
C460        C  0.38675049  0.20088371  0.36772365     0.06400
C461        C  0.37878100  0.19640694  0.33381980     0.26000
C462        C  0.36117697  0.22176777  0.31655729    -0.11700
C463        C  0.35105593  0.25186343  0.33287764    -0.25700
C464        C  0.35917130  0.25633318  0.36685625     0.36800
C465        C  0.40361907  0.17338381  0.38653911     0.06400
F466        F  0.38836677  0.16763750  0.31737873    -0.19500
H467        H  0.35528959  0.21785845  0.29039678     0.16200
F468        F  0.35064540  0.28547528  0.38321033    -0.23200
H469        H  0.38287606  0.23470266  0.41024586     0.18000
C470        C  0.43457904  0.17902921  0.40279424     0.26000
C471        C  0.44991121  0.15252132  0.42066279    -0.11700
C472        C  0.43463596  0.12000802  0.42248232    -0.25700
C473        C  0.40349190  0.11463382  0.40619498     0.36900
C474        C  0.38825578  0.14113854  0.38844597    -0.27400
F475        F  0.45034869  0.20983948  0.40064906    -0.19500
H476        H  0.47404409  0.15730322  0.43259692     0.16200
F477        F  0.38738377  0.08398154  0.40775176    -0.23200
H478        H  0.36416772  0.13658964  0.37632685     0.18000
C479        C  0.60788905  0.17861370  0.42468577    -0.27200
C480        C  0.61678039  0.17540078  0.39089087     0.06400
C481        C  0.61094355  0.14439894  0.37422094     0.26000
C482        C  0.59662881  0.11682014  0.39131800    -0.11700
C483        C  0.58750280  0.11996663  0.42510561    -0.25700
C484        C  0.59331750  0.15113191  0.44177405     0.36800
C485        C  0.63335069  0.20396227  0.37337343     0.06400
F486        F  0.61833807  0.14114432  0.34119515    -0.19500
H487        H  0.59182253  0.09327971  0.37789360     0.16200
F488        F  0.58552928  0.15484018  0.47467392    -0.23200
H489        H  0.61267230  0.20228335  0.43791010     0.18000
C490        C  0.61754638  0.23602635  0.37087676     0.26000
C491        C  0.63349463  0.26254167  0.35349805    -0.11700
C492        C  0.66553309  0.25747220  0.33913487    -0.25700
C493        C  0.68160831  0.22567874  0.34223543     0.36900
C494        C  0.66542085  0.19901355  0.35902592    -0.27400
F495        F  0.58657799  0.24146350  0.38471850    -0.19500
H496        H  0.62109913  0.28716111  0.35154822     0.16200
F497        F  0.71271765  0.22037637  0.32865671    -0.23200
H498        H  0.67800089  0.17450460  0.36111109     0.18000
C499        C  0.42181381  0.82369431  0.58252529    -0.27200
C500        C  0.39382280  0.83096005  0.60294376     0.06400
C501        C  0.38335585  0.86506750  0.60666050     0.26000
C502        C  0.40116259  0.89143882  0.59068094    -0.11700
C503        C  0.42965023  0.88431927  0.57057328    -0.25700
C504        C  0.43950998  0.84989469  0.56637414     0.36800
C505        C  0.37654059  0.80279077  0.62097419     0.06400
F506        F  0.35565610  0.87282910  0.62535906    -0.19500
H507        H  0.39253307  0.91748060  0.59405476     0.16200
F508        F  0.46659451  0.84130238  0.54718804    -0.23200
H509        H  0.43044329  0.79758572  0.57957518     0.18000
C510        C  0.36572401  0.77344564  0.60377471     0.26000
C511        C  0.35109861  0.74623339  0.62123307    -0.11700
C512        C  0.34701761  0.74769469  0.65611028    -0.25700
C513        C  0.35792086  0.77697839  0.67338368     0.36900
C514        C  0.37239104  0.80435549  0.65585256    -0.27400
F515        F  0.36897526  0.77123047  0.57003409    -0.19500
H516        H  0.34318830  0.72376928  0.60748292     0.16200
F517        F  0.35413035  0.77933607  0.70706012    -0.23200
H518        H  0.38095092  0.82657856  0.66958685     0.18000
C519        C  0.58505563  0.82472477  0.59368326    -0.27200
C520        C  0.61618187  0.83026759  0.60951543     0.06400
C521        C  0.63063196  0.86310039  0.60894518     0.26000
C522        C  0.61434633  0.88978210  0.59213098    -0.11700
C523        C  0.58341681  0.88416748  0.57559177    -0.25700
C524        C  0.56866014  0.85133093  0.57702500     0.36800
C525        C  0.63404292  0.80115630  0.62500543     0.06400
F526        F  0.66106843  0.86904056  0.62353464    -0.19500
H527        H  0.62634920  0.91469934  0.59148385     0.16200
F528        F  0.53823648  0.84484946  0.56267177    -0.23200
H529        H  0.57345567  0.79959913  0.59419116     0.18000
C530        C  0.64280494  0.80140756  0.65903239     0.26000
C531        C  0.65948088  0.77335735  0.67311001    -0.11700
C532        C  0.66768207  0.74475951  0.65345119    -0.25700
C533        C  0.65840415  0.74441403  0.61951829     0.36900
C534        C  0.64177479  0.77241356  0.60550989    -0.27400
F535        F  0.63452149  0.82836549  0.67875282    -0.19500
H536        H  0.66619139  0.77402729  0.69934950     0.16200
F537        F  0.66449392  0.71661176  0.60013865    -0.23200
H538        H  0.63487870  0.77170616  0.57931409     0.18000
C539        C  0.61988243  0.86391206  0.37388916    -0.27200
C540        C  0.61151789  0.83002552  0.38222365     0.06400
C541        C  0.58799700  0.82395106  0.40800374     0.26000
C542        C  0.57360423  0.85124043  0.42536146    -0.11700
C543        C  0.58200585  0.88529144  0.41728423    -0.25700
C544        C  0.60520471  0.89133434  0.39099237     0.36800
C545        C  0.62800341  0.80120066  0.36453239     0.06400
F546        F  0.57834549  0.79161311  0.41601150    -0.19500
H547        H  0.55563955  0.84551995  0.44513124     0.16200
F548        F  0.61385335  0.92358746  0.38166377    -0.23200
H549        H  0.63819537  0.86918342  0.35430405     0.18000
C550        C  0.63009641  0.80060547  0.32941640     0.26000
C551        C  0.64728739  0.77415038  0.31319229    -0.11700
C552        C  0.66191510  0.74733694  0.33159545    -0.25700
C553        C  0.65836235  0.74715258  0.36665060     0.36900
C554        C  0.64212526  0.77413588  0.38288975    -0.27400
F555        F  0.61487005  0.82518003  0.31077304    -0.19500
H556        H  0.64924324  0.77470165  0.28617189     0.16200
F557        F  0.66968159  0.72042446  0.38519936    -0.23200
H558        H  0.64067835  0.77390417  0.40994656     0.18000
C559        C  0.40804545  0.77429757  0.35845041    -0.27200
C560        C  0.38900681  0.80363586  0.36582379     0.06400
C561        C  0.35537527  0.80591200  0.35476109     0.26000
C562        C  0.34093681  0.77903200  0.33690412    -0.11700
C563        C  0.35989077  0.74966660  0.32951198    -0.25700
C564        C  0.39368884  0.74749734  0.34027263     0.36800
C565        C  0.40437041  0.83198631  0.38472767     0.06400
F566        F  0.33627546  0.83380040  0.36193438    -0.19500
H567        H  0.31485390  0.78108403  0.32883040     0.16200
F568        F  0.41242955  0.71911075  0.33409786    -0.23200
H569        H  0.43408321  0.77226200  0.36667011     0.18000
C570        C  0.41901641  0.82625185  0.41617052     0.26000
C571        C  0.43399273  0.85324394  0.43347391    -0.11700
C572        C  0.43439055  0.88646511  0.41985994    -0.25700
C573        C  0.41894571  0.89222159  0.38863776     0.36900
C574        C  0.40428128  0.86510978  0.37125386    -0.27400
F575        F  0.41820059  0.79472453  0.43043671    -0.19500
H576        H  0.44512073  0.84811473  0.45769600     0.16200
F577        F  0.41861294  0.92377493  0.37443762    -0.23200
H578        H  0.39314371  0.86989019  0.34696739     0.18000
C579        C  0.64893531  0.39435791  0.21770607    -0.27200
C580        C  0.63787103  0.37391465  0.19100433     0.06400
C581        C  0.64214362  0.33821422  0.19294707     0.26000
C582        C  0.65716068  0.32354834  0.22111487    -0.11700
C583        C  0.66783225  0.34410461  0.24784498    -0.25700
C584        C  0.66315679  0.37963271  0.24611456     0.36800
C585        C  0.62118967  0.39013464  0.16186217     0.06400
F586        F  0.63100114  0.31740468  0.16815955    -0.19500
H587        H  0.66044804  0.29606699  0.22210184     0.16200
F588        F  0.67130868  0.40001823  0.27233438    -0.23200
H589        H  0.64637756  0.42190309  0.21671490     0.18000
C590        C  0.59672477  0.41576551  0.16665630     0.26000
C591        C  0.58164444  0.43158894  0.13931321    -0.11700
C592        C  0.58990982  0.42184008  0.10644808    -0.25700
C593        C  0.61427322  0.39595544  0.10159165     0.36900
C594        C  0.62985836  0.38051886  0.12909350    -0.27400
F595        F  0.58656314  0.42496425  0.19783806    -0.19500
H596        H  0.56298290  0.45126304  0.14410268     0.16200
F597        F  0.62307889  0.38535911  0.07044202    -0.23200
H598        H  0.64899142  0.36121639  0.12471242     0.18000
C599        C  0.60261186  0.58084913  0.16201327    -0.27200
C600        C  0.61972954  0.61159079  0.15557188     0.06400
C601        C  0.62039444  0.62466849  0.12283657     0.26000
C602        C  0.60371853  0.60728394  0.09706464    -0.11700
C603        C  0.58630396  0.57648150  0.10348915    -0.25700
C604        C  0.58610303  0.56337436  0.13639995     0.36800
C605        C  0.63582046  0.63002802  0.18360874     0.06400
F606        F  0.63638175  0.65463985  0.11599239    -0.19500
H607        H  0.60420679  0.61811789  0.07211553     0.16200
F608        F  0.57051803  0.53334531  0.14392999    -0.23200
H609        H  0.60215079  0.57027002  0.18708088     0.18000
C610        C  0.61622136  0.64010724  0.21121700     0.26000
C611        C  0.63153718  0.65520227  0.23892062    -0.11700
C612        C  0.66672074  0.66080171  0.23961662    -0.25700
C613        C  0.68627468  0.65140268  0.21153479     0.36900
C614        C  0.67085957  0.63612679  0.18378160    -0.27400
F615        F  0.58214308  0.63541860  0.21126582    -0.19500
H616        H  0.61583139  0.66206837  0.26012066     0.16200
F617        F  0.72011511  0.65752180  0.21063892    -0.23200
H618        H  0.68632096  0.62855128  0.16263017     0.18000
C619        C  0.37718055  0.61155811  0.20826563    -0.27200
C620        C  0.38902091  0.63163663  0.18162740     0.06400
C621        C  0.38582781  0.66735921  0.18307048     0.26000
C622        C  0.37118486  0.68269217  0.21119447    -0.11700
C623        C  0.35927252  0.66252369  0.23790920    -0.25700
C624        C  0.36249872  0.62674514  0.23621925     0.36800
C625        C  0.40610862  0.61471010  0.15341414     0.06400
F626        F  0.39757691  0.68733301  0.15775442    -0.19500
H627        H  0.36885824  0.71027324  0.21201552     0.16200
F628        F  0.35237306  0.60647839  0.26200084    -0.23200
H629        H  0.37966762  0.58397932  0.20748809     0.18000
C630        C  0.43541308  0.59545985  0.15923511     0.26000
C631        C  0.45024475  0.57688530  0.13338216    -0.11700
C632        C  0.43607500  0.57698746  0.10116177    -0.25700
C633        C  0.40676372  0.59676445  0.09527803     0.36900
C634        C  0.39206422  0.61558299  0.12128756    -0.27400
F635        F  0.44963848  0.59462611  0.19009242    -0.19500
H636        H  0.47296450  0.56240785  0.13870150     0.16200
F637        F  0.39172115  0.59726694  0.06479813    -0.23200
H638        H  0.36917847  0.63005508  0.11662876     0.18000
C639        C  0.40624318  0.36644719  0.12547102    -0.27200
C640        C  0.40107092  0.38331530  0.15593165     0.06400
C641        C  0.41370205  0.41656977  0.16027176     0.26000
C642        C  0.43183706  0.43246232  0.13458924    -0.11700
C643        C  0.43714631  0.41569720  0.10397054    -0.25700
C644        C  0.42399396  0.38246734  0.09954544     0.36800
C645        C  0.38345185  0.36569685  0.18350588     0.06400
F646        F  0.40773262  0.43396454  0.18904146    -0.19500
H647        H  0.44107458  0.45825402  0.13841797     0.16200
F648        F  0.42865357  0.36521270  0.07045853    -0.23200
H649        H  0.39679487  0.34068409  0.12193794     0.18000
C650        C  0.34987485  0.35436794  0.17994850     0.26000
C651        C  0.33348811  0.33801249  0.20660899    -0.11700
C652        C  0.35060128  0.33249049  0.23685108    -0.25700
C653        C  0.38431887  0.34354052  0.24015329     0.36900
C654        C  0.40051072  0.36011583  0.21368030    -0.27400
F655        F  0.33272467  0.36010418  0.15111534    -0.19500
H656        H  0.30741494  0.32987525  0.20380504     0.16200
F657        F  0.40114864  0.33947568  0.26944622    -0.23200
H658        H  0.42641849  0.36871149  0.21670981     0.18000
C659        C  0.61102638  0.57059005  0.81687917    -0.27200
C660        C  0.62856503  0.60110661  0.82317810     0.06400
C661        C  0.62809573  0.61501289  0.85552330     0.26000
C662        C  0.61046376  0.59841491  0.88113056    -0.11700
C663        C  0.59251431  0.56803101  0.87482302    -0.25700
C664        C  0.59292933  0.55426073  0.84227180     0.36800
C665        C  0.64504546  0.61935785  0.79521470     0.06400
F666        F  0.64334224  0.64539623  0.86204473    -0.19500
H667        H  0.61018487  0.60989236  0.90576374     0.16200
F668        F  0.57592229  0.52509564  0.83477798    -0.23200
H669        H  0.61105994  0.55955824  0.79203763     0.18000
C670        C  0.67889450  0.63050444  0.79711080     0.26000
C671        C  0.69358288  0.64792708  0.77012333    -0.11700
C672        C  0.67461399  0.65444321  0.74118756    -0.25700
C673        C  0.64112510  0.64263561  0.73911648     0.36900
C674        C  0.62648544  0.62539561  0.76596405    -0.27400
F675        F  0.69788961  0.62382614  0.82459544    -0.19500
H676        H  0.71966663  0.65638118  0.77175683     0.16200
F677        F  0.62289460  0.64695624  0.71069806    -0.23200
H678        H  0.60047572  0.61679639  0.76395501     0.18000
C679        C  0.63259393  0.36138596  0.76994098    -0.27200
C680        C  0.65120633  0.37174371  0.79794890     0.06400
C681        C  0.68616229  0.36517768  0.79915718     0.26000
C682        C  0.70213437  0.34831574  0.77260627    -0.11700
C683        C  0.68339409  0.33769634  0.74465646    -0.25700
C684        C  0.64847847  0.34462755  0.74345084     0.36800
C685        C  0.63375479  0.38941474  0.82564612     0.06400
F686        F  0.70491057  0.37594474  0.82552460    -0.19500
H687        H  0.72913763  0.34362644  0.77377556     0.16200
F688        F  0.62995461  0.33638424  0.71607506    -0.23200
H689        H  0.60565834  0.36641827  0.76857831     0.18000
C690        C  0.61554710  0.41959943  0.81967153     0.26000
C691        C  0.59743575  0.43511596  0.84554776    -0.11700
C692        C  0.59714020  0.42086952  0.87787280    -0.25700
C693        C  0.61562957  0.39064458  0.88380815     0.36900
C694        C  0.63384636  0.37521488  0.85786810    -0.27400
F695        F  0.61549348  0.43417371  0.78882065    -0.19500
H696        H  0.58360996  0.45835655  0.84023509     0.16200
F697        F  0.61513551  0.37523816  0.91426094    -0.23200
H698        H  0.64735051  0.35163213  0.86270050     0.18000
C699        C  0.41871757  0.40935733  0.81831990    -0.27200
C700        C  0.39191496  0.38737337  0.82688995     0.06400
C701        C  0.38515782  0.38084690  0.86082830     0.26000
C702        C  0.40487095  0.39618170  0.88560733    -0.11700
C703        C  0.43159405  0.41855437  0.87713906    -0.25700
C704        C  0.43820071  0.42504461  0.84301276     0.36800
C705        C  0.37133378  0.37139768  0.80021409     0.06400
F706        F  0.35890394  0.36041569  0.87008899    -0.19500
H707        H  0.39885009  0.39074145  0.91152613     0.16200
F708        F  0.46329783  0.44665730  0.83324366    -0.23200
H709        H  0.42470176  0.41435100  0.79230168     0.18000
C710        C  0.35858065  0.39121940  0.77371821     0.26000
C711        C  0.34108431  0.37570140  0.74755738    -0.11700
C712        C  0.33595503  0.34016959  0.74724502    -0.25700
C713        C  0.34765464  0.32045667  0.77433028     0.36900
C714        C  0.36527946  0.33599171  0.80048252    -0.27400
F715        F  0.36323039  0.42561167  0.77297874    -0.19500
H716        H  0.33256216  0.39140614  0.72690058     0.16200
F717        F  0.34225918  0.28617383  0.77541631    -0.23200
H718        H  0.37498027  0.32019021  0.82054568     0.18000
C719        C  0.37538974  0.65732940  0.79960587    -0.27200
C720        C  0.38609726  0.62341198  0.79541668     0.06400
C721        C  0.37892128  0.60615818  0.76550615     0.26000
C722        C  0.36138427  0.62280558  0.74004313    -0.11700
C723        C  0.35118958  0.65692240  0.74397643    -0.25700
C724        C  0.35820555  0.67413070  0.77393718     0.36800
C725        C  0.40373630  0.60570271  0.82272104     0.06400
F726        F  0.38827592  0.57304502  0.76127095    -0.19500
H727        H  0.35598522  0.60920290  0.71708165     0.16200
F728        F  0.34775864  0.70683540  0.77856222    -0.23200
H729        H  0.38050698  0.67077048  0.82271596     0.18000
C730        C  0.43616209  0.59192254  0.81775606     0.26000
C731        C  0.45197993  0.57391239  0.84346551    -0.11700
C732        C  0.43582531  0.56970646  0.87457593    -0.25700
C733        C  0.40339667  0.58391566  0.87952783     0.36900
C734        C  0.38762574  0.60182152  0.85374973    -0.27400
F735        F  0.45274063  0.59649330  0.78827693    -0.19500
H736        H  0.47713895  0.56376367  0.83920551     0.16200
F737        F  0.38654697  0.57991890  0.90894574    -0.23200
H738        H  0.36251322  0.61219726  0.85778189     0.18000
loop_ 
_geom_bond_atom_site_label_1 
_geom_bond_atom_site_label_2 
_geom_bond_distance 
_geom_bond_site_symmetry_2 
_ccdc_geom_bond_type 
O1          Zr13   2.434       .  S
O1            C3   1.287       .  A
O2          Zr39   2.424       .  S
O2            C3   1.287       .  A
C3          C703   1.487       .  S
O4          Zr16   2.436   1_554  S
O4            C6   1.286       .  A
O5          Zr40   2.420       .  S
O5            C6   1.287       .  A
C6          C632   1.483       .  S
O7          Zr16   2.424       .  S
O7            C9   1.285       .  A
O8          Zr39   2.421       .  S
O8            C9   1.287       .  A
C9          C732   1.475       .  S
O10         Zr13   2.430   1_554  S
O10          C12   1.286       .  A
O11         Zr40   2.419       .  S
O11          C12   1.287       .  A
C12         C643   1.476       .  S
Zr13         O14   2.434       .  S
Zr13         O15   2.436       .  S
Zr13         O19   2.369       .  S
Zr13         O20   2.374   1_556  S
Zr13         O43   2.371   1_556  S
Zr13         O45   2.369       .  S
O14          H57   0.990       .  S
O15          H56   0.990       .  S
O15          H60   0.990   1_556  S
Zr16         O17   2.435       .  S
Zr16         O18   2.436       .  S
Zr16         O20   2.369   1_556  S
Zr16         O19   2.372       .  S
Zr16         O44   2.370       .  S
Zr16         O46   2.367   1_556  S
O17          H58   0.990       .  S
O17          H61   0.990   1_556  S
O18          H51   0.990   1_556  S
O19         Zr39   2.373       .  S
O20         Zr40   2.376       .  S
O20          H47   0.967       .  S
O21         Zr33   2.441   1_554  S
O21          C23   1.288       .  A
O22         Zr40   2.408       .  S
O22          C23   1.285       .  A
C23         C592   1.483       .  S
O24         Zr36   2.438       .  S
O24          C26   1.288       .  A
O25         Zr39   2.404       .  S
O25          C26   1.283       .  A
C26         C663   1.477       .  S
O27         Zr36   2.451   1_554  S
O27          C29   1.290       .  A
O28         Zr40   2.413       .  S
O28          C29   1.285       .  A
C29         C603   1.486       .  S
O30         Zr33   2.442       .  S
O30          C32   1.288       .  A
O31         Zr39   2.419       .  S
O31          C32   1.287       .  A
C32         C692   1.482       .  S
Zr33         O34   2.437       .  S
Zr33         O35   2.434       .  S
Zr33         O41   2.373   1_556  S
Zr33         O42   2.371       .  S
Zr33         O45   2.372       .  S
Zr33         O43   2.370   1_556  S
O34          H54   0.990       .  S
O34          H59   0.990       .  S
O35          H55   0.990       .  S
Zr36         O37   2.434       .  S
Zr36         O38   2.437       .  S
Zr36         O42   2.374       .  S
Zr36         O41   2.367   1_556  S
Zr36         O46   2.369   1_556  S
Zr36         O44   2.371       .  S
O37          H53   0.990       .  S
O38          H52   0.990       .  S
O38          H62   0.990   1_556  S
Zr39         O42   2.381       .  S
Zr39         O44   2.381       .  S
Zr39         O45   2.377       .  S
Zr40         O41   2.381       .  S
Zr40         O43   2.377       .  S
Zr40         O46   2.372       .  S
O41          H49   0.967       .  S
O44          H48   0.966       .  S
O45          H50   0.968       .  S
O63         Zr75   2.440   1_565  S
O63          C65   1.288       .  A
O64        Zr101   2.407       .  S
O64          C65   1.284       .  A
C65         C572   1.479       .  S
O66         Zr78   2.447       .  S
O66          C68   1.290       .  A
O67        Zr102   2.397       .  S
O67          C68   1.282       .  A
C68         C483   1.470       .  S
O69         Zr78   2.446   1_565  S
O69          C71   1.289       .  A
O70        Zr101   2.412       .  S
O70          C71   1.285       .  A
C71         C543   1.487       .  S
O72         Zr75   2.438       .  S
O72          C74   1.287       .  A
O73        Zr102   2.415       .  S
O73          C74   1.285       .  A
C74         C472   1.479       .  S
Zr75         O76   2.435       .  S
Zr75         O77   2.435       .  S
Zr75         O81   2.369   1_545  S
Zr75         O82   2.368       .  S
Zr75        O105   2.372       .  S
Zr75        O107   2.368   1_545  S
O76         H119   0.990       .  S
O77         H118   0.990       .  S
O77         H122   0.990       .  S
Zr78         O79   2.438       .  S
Zr78         O80   2.433       .  S
Zr78         O82   2.370       .  S
Zr78         O81   2.371   1_545  S
Zr78        O106   2.373   1_545  S
Zr78        O108   2.372       .  S
O79         H120   0.990   1_545  S
O79         H123   0.990       .  S
O80         H113   0.990       .  S
O81        Zr101   2.377       .  S
O82        Zr102   2.379       .  S
O82         H109   0.966       .  S
O83         Zr95   2.447       .  S
O83          C85   1.290       .  A
O84        Zr102   2.407       .  S
O84          C85   1.283       .  A
C85         C452   1.486       .  S
O86         Zr98   2.444   1_565  S
O86          C88   1.288       .  A
O87        Zr101   2.417       .  S
O87          C88   1.285       .  A
C88         C523   1.483       .  S
O89         Zr98   2.447       .  S
O89          C91   1.290       .  A
O90        Zr102   2.412       .  S
O90          C91   1.284       .  A
C91         C432   1.487       .  S
O92         Zr95   2.450   1_565  S
O92          C94   1.290       .  A
O93        Zr101   2.415       .  S
O93          C94   1.285       .  A
C94         C503   1.488       .  S
Zr95         O96   2.435       .  S
Zr95         O97   2.432       .  S
Zr95        O103   2.371       .  S
Zr95        O104   2.374   1_545  S
Zr95        O107   2.370   1_545  S
Zr95        O105   2.374       .  S
O96         H116   0.990   1_545  S
O96         H121   0.990   1_545  S
O97         H117   0.990   1_545  S
Zr98         O99   2.435       .  S
Zr98        O100   2.436   1_545  S
Zr98        O104   2.375   1_545  S
Zr98        O103   2.373       .  S
Zr98        O108   2.371       .  S
Zr98        O106   2.373   1_545  S
O99         H115   0.990   1_545  S
O100        H114   0.990   1_565  S
O100        H124   0.990   1_565  S
Zr101       O104   2.374       .  S
Zr101       O106   2.380       .  S
Zr101       O107   2.378       .  S
Zr102       O103   2.376       .  S
Zr102       O105   2.375       .  S
Zr102       O108   2.378       .  S
O103        H111   0.965       .  S
O106        H110   0.965       .  S
O107        H112   0.966       .  S
O125       Zr137   2.442   1_655  S
O125        C127   1.289       .  A
O126       Zr163   2.412       .  S
O126        C127   1.285       .  A
C127        C403   1.481       .  S
O128       Zr140   2.436       .  S
O128        C130   1.288       .  A
O129       Zr164   2.420       .  S
O129        C130   1.286       .  A
C130        C332   1.486       .  S
O131       Zr140   2.440   1_655  S
O131        C133   1.288       .  A
O132       Zr163   2.408       .  S
O132        C133   1.284       .  A
C133        C383   1.482       .  S
O134       Zr137   2.436       .  S
O134        C136   1.288       .  A
O135       Zr164   2.421       .  S
O135        C136   1.287       .  A
C136        C303   1.483       .  S
Zr137       O138   2.433       .  S
Zr137       O139   2.436       .  S
Zr137       O143   2.378   1_455  S
Zr137       O144   2.371       .  S
Zr137       O167   2.376       .  S
Zr137       O169   2.368   1_455  S
O138        H181   0.990   1_455  S
O139        H180   0.990       .  S
O139        H184   0.990   1_455  S
Zr140       O141   2.434       .  S
Zr140       O142   2.434       .  S
Zr140       O144   2.369       .  S
Zr140       O143   2.374   1_455  S
Zr140       O168   2.369   1_455  S
Zr140       O170   2.372       .  S
O141        H182   0.990       .  S
O141        H185   0.990   1_455  S
O142        H175   0.990       .  S
O143       Zr163   2.376       .  S
O144       Zr164   2.380       .  S
O144        H171   0.966       .  S
O145       Zr157   2.431       .  S
O145        C147   1.287       .  A
O146       Zr164   2.422       .  S
O146        C147   1.287       .  A
C147        C283   1.482       .  S
O148       Zr160   2.423   1_655  S
O148        C150   1.284       .  A
O149       Zr163   2.418       .  S
O149        C150   1.286       .  A
C150        C363   1.481       .  S
O151       Zr160   2.421       .  S
O151        C153   1.284       .  A
O152       Zr164   2.418       .  S
O152        C153   1.286       .  A
C153        C272   1.477       .  S
O154       Zr157   2.443   1_655  S
O154        C156   1.288       .  A
O155       Zr163   2.399       .  S
O155        C156   1.282       .  A
C156        C343   1.468       .  S
Zr157       O158   2.435       .  S
Zr157       O159   2.434       .  S
Zr157       O165   2.370       .  S
Zr157       O166   2.367   1_455  S
Zr157       O169   2.363   1_455  S
Zr157       O167   2.375       .  S
O158        H178   0.990       .  S
O158        H183   0.990   1_455  S
O159        H179   0.990       .  S
Zr160       O161   2.434       .  S
Zr160       O162   2.437       .  S
Zr160       O166   2.368   1_455  S
Zr160       O165   2.367       .  S
Zr160       O170   2.366       .  S
Zr160       O168   2.359   1_455  S
O161        H177   0.990       .  S
O162        H176   0.990       .  S
O162        H186   0.990   1_455  S
Zr163       O166   2.373       .  S
Zr163       O168   2.375       .  S
Zr163       O169   2.378       .  S
Zr164       O165   2.381       .  S
Zr164       O167   2.380       .  S
Zr164       O170   2.377       .  S
O165        H173   0.964       .  S
O168        H172   0.967       .  S
O169        H174   0.965       .  S
C187        C392   1.475       .  S
C187        C188   1.403       .  A
C187        C192   1.399       .  A
C188        C189   1.405       .  A
C188        H193   1.084       .  S
C189        C583   1.475       .  S
C189        C190   1.401       .  A
C190        C191   1.398       .  A
C190        H194   1.084       .  S
C191        C492   1.465       .  S
C191        C192   1.396       .  A
C192        H195   1.084       .  S
C196        C412   1.480       .  S
C196        C197   1.402       .  A
C196        C201   1.405       .  A
C197        C198   1.404       .  A
C197        H202   1.084       .  S
C198        C552   1.484       .  S
C198        C199   1.403       .  A
C199        C200   1.405       .  A
C199        H203   1.083       .  S
C200        C612   1.487       .  S
C200        C201   1.407       .  A
C201        H204   1.083       .  S
C205        C683   1.479       .  S
C205        C206   1.404       .  A
C205        C210   1.401       .  A
C206        C207   1.404       .  A
C206        H211   1.083       .  S
C207        C423   1.481       .  S
C207        C208   1.401       .  A
C208        C209   1.401       .  A
C208        H212   1.084       .  S
C209        C372   1.474       .  S
C209        C210   1.402       .  A
C210        H213   1.084       .  S
C214        C563   1.475       .  S
C214        C215   1.402       .  A
C214        C219   1.403       .  A
C215        C216   1.400       .  A
C215        H220   1.084       .  S
C216        C312   1.477       .  S
C216        C217   1.400       .  A
C217        C218   1.402       .  A
C217        H221   1.084       .  S
C218        C623   1.477       .  S
C218        C219   1.404       .  A
C219        H222   1.084       .  S
C223        C723   1.470       .  S
C223        C224   1.399       .  A
C223        C228   1.402       .  A
C224        C225   1.400       .  A
C224        H229   1.084       .  S
C225        C292   1.475       .  S
C225        C226   1.401       .  A
C226        C227   1.403       .  A
C226        H230   1.084       .  S
C227        C512   1.479       .  S
C227        C228   1.403       .  A
C228        H231   1.084       .  S
C232        C712   1.481       .  S
C232        C233   1.404       .  A
C232        C237   1.405       .  A
C233        C234   1.402       .  A
C233        H238   1.083       .  S
C234        C443   1.482       .  S
C234        C235   1.402       .  A
C235        C236   1.403       .  A
C235        H239   1.084       .  S
C236        C263   1.476       .  S
C236        C237   1.402       .  A
C237        H240   1.084       .  S
C241        C672   1.470       .  S
C241        C242   1.403       .  A
C241        C246   1.398       .  A
C242        C243   1.402       .  A
C242        H247   1.084       .  S
C243        C532   1.480       .  S
C243        C244   1.403       .  A
C244        C245   1.400       .  A
C244        H248   1.084       .  S
C245        C352   1.466       .  S
C245        C246   1.398       .  A
C246        H249   1.084       .  S
C250        C463   1.479       .  S
C250        C251   1.401       .  A
C250        C255   1.405       .  A
C251        C252   1.399       .  A
C251        H256   1.084       .  S
C252        C652   1.473       .  S
C252        C253   1.400       .  A
C253        C254   1.404       .  A
C253        H257   1.084       .  S
C254        C323   1.484       .  S
C254        C255   1.407       .  A
C255        H258   1.083       .  S
C259        C260   1.405       .  A
C259        C264   1.399       .  A
C259        H269   1.083       .  S
C260        C265   1.478       .  S
C260        C261   1.406       .  A
C261        C262   1.392       .  A
C261        F266   1.358       .  S
C262        C263   1.402       .  A
C262        H267   1.083       .  S
C263        C264   1.406       .  A
C264        F268   1.357       .  S
C265        C270   1.405       .  A
C265        C274   1.403       .  A
C270        C271   1.395       .  A
C270        F275   1.358       .  S
C271        C272   1.408       .  A
C271        H276   1.083       .  S
C272        C273   1.407       .  A
C273        C274   1.392       .  A
C273        F277   1.357       .  S
C274        H278   1.083       .  S
C279        C280   1.403       .  A
C279        C284   1.394       .  A
C279        H289   1.083       .  S
C280        C285   1.476       .  S
C280        C281   1.403       .  A
C281        C282   1.396       .  A
C281        F286   1.358       .  S
C282        C283   1.410       .  A
C282        H287   1.083       .  S
C283        C284   1.409       .  A
C284        F288   1.357       .  S
C285        C290   1.405       .  A
C285        C294   1.404       .  A
C290        C291   1.392       .  A
C290        F295   1.358       .  S
C291        C292   1.403       .  A
C291        H296   1.083       .  S
C292        C293   1.406       .  A
C293        C294   1.397       .  A
C293        F297   1.358       .  S
C294        H298   1.083       .  S
C299        C300   1.401       .  A
C299        C304   1.394       .  A
C299        H309   1.084       .  S
C300        C305   1.475       .  S
C300        C301   1.404       .  A
C301        C302   1.398       .  A
C301        F306   1.358       .  S
C302        C303   1.409       .  A
C302        H307   1.083       .  S
C303        C304   1.410       .  A
C304        F308   1.357       .  S
C305        C310   1.405       .  A
C305        C314   1.403       .  A
C310        C311   1.397       .  A
C310        F315   1.357       .  S
C311        C312   1.404       .  A
C311        H316   1.083       .  S
C312        C313   1.407       .  A
C313        C314   1.394       .  A
C313        F317   1.358       .  S
C314        H318   1.084       .  S
C319        C320   1.405       .  A
C319        C324   1.396       .  A
C319        H329   1.083       .  S
C320        C325   1.484       .  S
C320        C321   1.407       .  A
C321        C322   1.397       .  A
C321        F326   1.358       .  S
C322        C323   1.407       .  A
C322        H327   1.083       .  S
C323        C324   1.407       .  A
C324        F328   1.357       .  S
C325        C330   1.406       .  A
C325        C334   1.404       .  A
C330        C331   1.396       .  A
C330        F335   1.358       .  S
C331        C332   1.408       .  A
C331        H336   1.083       .  S
C332        C333   1.411       .  A
C333        C334   1.397       .  A
C333        F337   1.357       .  S
C334        H338   1.083       .  S
C339        C340   1.403       .  A
C339        C344   1.395       .  A
C339        H349   1.083       .  S
C340        C345   1.472       .  S
C340        C341   1.404       .  A
C341        C342   1.393       .  A
C341        F346   1.358       .  S
C342        C343   1.404       .  A
C342        H347   1.084       .  S
C343        C344   1.405       .  A
C344        F348   1.358       .  S
C345        C350   1.405       .  A
C345        C354   1.404       .  A
C350        C351   1.394       .  A
C350        F355   1.357       .  S
C351        C352   1.400       .  A
C351        H356   1.083       .  S
C352        C353   1.403       .  A
C353        C354   1.395       .  A
C353        F357   1.358       .  S
C354        H358   1.083       .  S
C359        C360   1.401       .  A
C359        C364   1.391       .  A
C359        H369   1.083       .  S
C360        C365   1.480       .  S
C360        C361   1.408       .  A
C361        C362   1.398       .  A
C361        F366   1.357       .  S
C362        C363   1.407       .  A
C362        H367   1.083       .  S
C363        C364   1.412       .  A
C364        F368   1.358       .  S
C365        C370   1.410       .  A
C365        C374   1.404       .  A
C370        C371   1.395       .  A
C370        F375   1.358       .  S
C371        C372   1.402       .  A
C371        H376   1.083       .  S
C372        C373   1.406       .  A
C373        C374   1.395       .  A
C373        F377   1.358       .  S
C374        H378   1.083       .  S
C379        C380   1.402       .  A
C379        C384   1.392       .  A
C379        H389   1.083       .  S
C380        C385   1.480       .  S
C380        C381   1.406       .  A
C381        C382   1.398       .  A
C381        F386   1.358       .  S
C382        C383   1.408       .  A
C382        H387   1.083       .  S
C383        C384   1.410       .  A
C384        F388   1.358       .  S
C385        C390   1.407       .  A
C385        C394   1.406       .  A
C390        C391   1.392       .  A
C390        F395   1.358       .  S
C391        C392   1.403       .  A
C391        H396   1.083       .  S
C392        C393   1.405       .  A
C393        C394   1.397       .  A
C393        F397   1.357       .  S
C394        H398   1.083       .  S
C399        C400   1.402       .  A
C399        C404   1.395       .  A
C399        H409   1.083       .  S
C400        C405   1.480       .  S
C400        C401   1.406       .  A
C401        C402   1.399       .  A
C401        F406   1.357       .  S
C402        C403   1.406       .  A
C402        H407   1.083       .  S
C403        C404   1.410       .  A
C404        F408   1.358       .  S
C405        C410   1.407       .  A
C405        C414   1.403       .  A
C410        C411   1.398       .  A
C410        F415   1.358       .  S
C411        C412   1.403       .  A
C411        H416   1.083       .  S
C412        C413   1.407       .  A
C413        C414   1.398       .  A
C413        F417   1.357       .  S
C414        H418   1.083       .  S
C419        C420   1.407       .  A
C419        C424   1.397       .  A
C419        H429   1.083       .  S
C420        C425   1.486       .  S
C420        C421   1.408       .  A
C421        C422   1.396       .  A
C421        F426   1.358       .  S
C422        C423   1.405       .  A
C422        H427   1.083       .  S
C423        C424   1.405       .  A
C424        F428   1.357       .  S
C425        C430   1.407       .  A
C425        C434   1.405       .  A
C430        C431   1.396       .  A
C430        F435   1.357       .  S
C431        C432   1.407       .  A
C431        H436   1.083       .  S
C432        C433   1.412       .  A
C433        C434   1.398       .  A
C433        F437   1.358       .  S
C434        H438   1.083       .  S
C439        C440   1.406       .  A
C439        C444   1.396       .  A
C439        H449   1.083       .  S
C440        C445   1.486       .  S
C440        C441   1.409       .  A
C441        C442   1.397       .  A
C441        F446   1.358       .  S
C442        C443   1.405       .  A
C442        H447   1.083       .  S
C443        C444   1.406       .  A
C444        F448   1.357       .  S
C445        C450   1.407       .  A
C445        C454   1.404       .  A
C450        C451   1.397       .  A
C450        F455   1.357       .  S
C451        C452   1.406       .  A
C451        H456   1.083       .  S
C452        C453   1.413       .  A
C453        C454   1.397       .  A
C453        F457   1.358       .  S
C454        H458   1.083       .  S
C459        C460   1.402       .  A
C459        C464   1.397       .  A
C459        H469   1.083       .  S
C460        C465   1.473       .  S
C460        C461   1.404       .  A
C461        C462   1.395       .  A
C461        F466   1.358       .  S
C462        C463   1.405       .  A
C462        H467   1.083       .  S
C463        C464   1.408       .  A
C464        F468   1.357       .  S
C465        C470   1.404       .  A
C465        C474   1.400       .  A
C470        C471   1.398       .  A
C470        F475   1.358       .  S
C471        C472   1.408       .  A
C471        H476   1.083       .  S
C472        C473   1.409       .  A
C473        C474   1.394       .  A
C473        F477   1.357       .  S
C474        H478   1.084       .  S
C479        C480   1.401       .  A
C479        C484   1.395       .  A
C479        H489   1.084       .  S
C480        C485   1.469       .  S
C480        C481   1.404       .  A
C481        C482   1.394       .  A
C481        F486   1.358       .  S
C482        C483   1.403       .  A
C482        H487   1.083       .  S
C483        C484   1.409       .  A
C484        F488   1.358       .  S
C485        C490   1.405       .  A
C485        C494   1.402       .  A
C490        C491   1.395       .  A
C490        F495   1.358       .  S
C491        C492   1.402       .  A
C491        H496   1.084       .  S
C492        C493   1.402       .  A
C493        C494   1.392       .  A
C493        F497   1.358       .  S
C494        H498   1.083       .  S
C499        C500   1.401       .  A
C499        C504   1.395       .  A
C499        H509   1.083       .  S
C500        C505   1.480       .  S
C500        C501   1.405       .  A
C501        C502   1.399       .  A
C501        F506   1.358       .  S
C502        C503   1.409       .  A
C502        H507   1.083       .  S
C503        C504   1.412       .  A
C504        F508   1.357       .  S
C505        C510   1.406       .  A
C505        C514   1.405       .  A
C510        C511   1.395       .  A
C510        F515   1.358       .  S
C511        C512   1.404       .  A
C511        H516   1.083       .  S
C512        C513   1.406       .  A
C513        C514   1.399       .  A
C513        F517   1.357       .  S
C514        H518   1.083       .  S
C519        C520   1.401       .  A
C519        C524   1.396       .  A
C519        H529   1.084       .  S
C520        C525   1.476       .  S
C520        C521   1.404       .  A
C521        C522   1.399       .  A
C521        F526   1.358       .  S
C522        C523   1.408       .  A
C522        H527   1.083       .  S
C523        C524   1.410       .  A
C524        F528   1.357       .  S
C525        C530   1.405       .  A
C525        C534   1.402       .  A
C530        C531   1.399       .  A
C530        F535   1.357       .  S
C531        C532   1.406       .  A
C531        H536   1.083       .  S
C532        C533   1.407       .  A
C533        C534   1.395       .  A
C533        F537   1.358       .  S
C534        H538   1.083       .  S
C539        C540   1.404       .  A
C539        C544   1.398       .  A
C539        H549   1.083       .  S
C540        C545   1.482       .  S
C540        C541   1.405       .  A
C541        C542   1.395       .  A
C541        F546   1.358       .  S
C542        C543   1.408       .  A
C542        H547   1.083       .  S
C543        C544   1.411       .  A
C544        F548   1.357       .  S
C545        C550   1.406       .  A
C545        C554   1.404       .  A
C550        C551   1.398       .  A
C550        F555   1.358       .  S
C551        C552   1.406       .  A
C551        H556   1.083       .  S
C552        C553   1.408       .  A
C553        C554   1.396       .  A
C553        F557   1.358       .  S
C554        H558   1.083       .  S
C559        C560   1.404       .  A
C559        C564   1.397       .  A
C559        H569   1.083       .  S
C560        C565   1.474       .  S
C560        C561   1.404       .  A
C561        C562   1.394       .  A
C561        F566   1.357       .  S
C562        C563   1.403       .  A
C562        H567   1.083       .  S
C563        C564   1.406       .  A
C564        F568   1.358       .  S
C565        C570   1.403       .  A
C565        C574   1.402       .  A
C570        C571   1.395       .  A
C570        F575   1.358       .  S
C571        C572   1.408       .  A
C571        H576   1.083       .  S
C572        C573   1.409       .  A
C573        C574   1.395       .  A
C573        F577   1.357       .  S
C574        H578   1.083       .  S
C579        C580   1.405       .  A
C579        C584   1.393       .  A
C579        H589   1.083       .  S
C580        C585   1.482       .  S
C580        C581   1.409       .  A
C581        C582   1.397       .  A
C581        F586   1.358       .  S
C582        C583   1.404       .  A
C582        H587   1.083       .  S
C583        C584   1.404       .  A
C584        F588   1.357       .  S
C585        C590   1.406       .  A
C585        C594   1.405       .  A
C590        C591   1.391       .  A
C590        F595   1.358       .  S
C591        C592   1.406       .  A
C591        H596   1.083       .  S
C592        C593   1.411       .  A
C593        C594   1.398       .  A
C593        F597   1.358       .  S
C594        H598   1.083       .  S
C599        C600   1.401       .  A
C599        C604   1.395       .  A
C599        H609   1.084       .  S
C600        C605   1.479       .  S
C600        C601   1.404       .  A
C601        C602   1.401       .  A
C601        F606   1.357       .  S
C602        C603   1.409       .  A
C602        H607   1.083       .  S
C603        C604   1.411       .  A
C604        F608   1.358       .  S
C605        C610   1.403       .  A
C605        C614   1.404       .  A
C610        C611   1.395       .  A
C610        F615   1.358       .  S
C611        C612   1.406       .  A
C611        H616   1.083       .  S
C612        C613   1.410       .  A
C613        C614   1.402       .  A
C613        F617   1.357       .  S
C614        H618   1.083       .  S
C619        C620   1.400       .  A
C619        C624   1.392       .  A
C619        H629   1.084       .  S
C620        C625   1.471       .  S
C620        C621   1.404       .  A
C621        C622   1.399       .  A
C621        F626   1.357       .  S
C622        C623   1.406       .  A
C622        H627   1.083       .  S
C623        C624   1.407       .  A
C624        F628   1.358       .  S
C625        C630   1.401       .  A
C625        C634   1.401       .  A
C630        C631   1.392       .  A
C630        F635   1.358       .  S
C631        C632   1.406       .  A
C631        H636   1.083       .  S
C632        C633   1.413       .  A
C633        C634   1.400       .  A
C633        F637   1.358       .  S
C634        H638   1.083       .  S
C639        C640   1.401       .  A
C639        C644   1.396       .  A
C639        H649   1.083       .  S
C640        C645   1.471       .  S
C640        C641   1.403       .  A
C641        C642   1.394       .  A
C641        F646   1.358       .  S
C642        C643   1.405       .  A
C642        H647   1.083       .  S
C643        C644   1.410       .  A
C644        F648   1.358       .  S
C645        C650   1.405       .  A
C645        C654   1.401       .  A
C650        C651   1.398       .  A
C650        F655   1.357       .  S
C651        C652   1.404       .  A
C651        H656   1.083       .  S
C652        C653   1.406       .  A
C653        C654   1.393       .  A
C653        F657   1.358       .  S
C654        H658   1.083       .  S
C659        C660   1.402       .  A
C659        C664   1.393       .  A
C659        H669   1.084       .  S
C660        C665   1.474       .  S
C660        C661   1.404       .  A
C661        C662   1.395       .  A
C661        F666   1.357       .  S
C662        C663   1.406       .  A
C662        H667   1.083       .  S
C663        C664   1.409       .  A
C664        F668   1.357       .  S
C665        C670   1.407       .  A
C665        C674   1.402       .  A
C670        C671   1.399       .  A
C670        F675   1.358       .  S
C671        C672   1.403       .  A
C671        H676   1.083       .  S
C672        C673   1.403       .  A
C673        C674   1.390       .  A
C673        F677   1.358       .  S
C674        H678   1.083       .  S
C679        C680   1.402       .  A
C679        C684   1.394       .  A
C679        H689   1.083       .  S
C680        C685   1.476       .  S
C680        C681   1.405       .  A
C681        C682   1.399       .  A
C681        F686   1.357       .  S
C682        C683   1.405       .  A
C682        H687   1.083       .  S
C683        C684   1.406       .  A
C684        F688   1.358       .  S
C685        C690   1.404       .  A
C685        C694   1.402       .  A
C690        C691   1.396       .  A
C690        F695   1.358       .  S
C691        C692   1.406       .  A
C691        H696   1.082       .  S
C692        C693   1.410       .  A
C693        C694   1.398       .  A
C693        F697   1.357       .  S
C694        H698   1.083       .  S
C699        C700   1.403       .  A
C699        C704   1.396       .  A
C699        H709   1.083       .  S
C700        C705   1.482       .  S
C700        C701   1.405       .  A
C701        C702   1.398       .  A
C701        F706   1.358       .  S
C702        C703   1.410       .  A
C702        H707   1.083       .  S
C703        C704   1.411       .  A
C704        F708   1.357       .  S
C705        C710   1.407       .  A
C705        C714   1.405       .  A
C710        C711   1.395       .  A
C710        F715   1.357       .  S
C711        C712   1.404       .  A
C711        H716   1.083       .  S
C712        C713   1.408       .  A
C713        C714   1.397       .  A
C713        F717   1.358       .  S
C714        H718   1.083       .  S
C719        C720   1.403       .  A
C719        C724   1.396       .  A
C719        H729   1.083       .  S
C720        C725   1.470       .  S
C720        C721   1.404       .  A
C721        C722   1.394       .  A
C721        F726   1.358       .  S
C722        C723   1.403       .  A
C722        H727   1.084       .  S
C723        C724   1.403       .  A
C724        F728   1.357       .  S
C725        C730   1.403       .  A
C725        C734   1.400       .  A
C730        C731   1.395       .  A
C730        F735   1.357       .  S
C731        C732   1.405       .  A
C731        H736   1.083       .  S
C732        C733   1.410       .  A
C733        C734   1.394       .  A
C733        F737   1.358       .  S
C734        H738   1.084       .  S
