geometry optimzed in LAMMPS
_audit_creation_date              2020-11-30 
_audit_creation_method            'lammps2cif' 
_symmetry_space_group_name_H-M    'P1' 
_symmetry_Int_Tables_number       1 
_symmetry_cell_setting            triclinic 
loop_ 
_symmetry_equiv_pos_as_xyz 
  x,y,z 
_cell_length_a                    33.73778384386182 
_cell_length_b                    33.55840961012888 
_cell_length_c                    33.583905676214826 
_cell_angle_alpha                 89.78488601239214 
_cell_angle_beta                  90.1564197742098 
_cell_angle_gamma                 90.01842939808164 
loop_ 
_atom_site_label 
_atom_site_type_symbol 
_atom_site_fract_x 
_atom_site_fract_y 
_atom_site_fract_z 
_atom_site_charge 
C1          C  0.49780396  0.79398437  0.70943770     0.03440
C2          C  0.49729449  0.83463771  0.72054482    -0.12710
C3          C  0.49577350  0.86415487  0.69105495     0.00940
C4          C  0.49485582  0.85212726  0.65111836    -0.11230
C5          C  0.49481210  0.81211501  0.63931696     0.03430
C6          C  0.49644519  0.78274155  0.66889370    -0.10650
H7          H  0.49794203  0.84293330  0.75168264     0.09030
H8          H  0.49490446  0.87485816  0.62822263     0.06560
H9          H  0.49656496  0.75154214  0.66072020     0.06410
C10         C  0.49507193  0.67130513  0.82914237     0.03440
C11         C  0.49392713  0.63067552  0.81800341    -0.12710
C12         C  0.49292853  0.60113876  0.84746310     0.00940
C13         C  0.49428967  0.61307766  0.88741976    -0.11230
C14         C  0.49703326  0.65302607  0.89927428     0.03430
C15         C  0.49695059  0.68246750  0.86971161    -0.10650
H16         H  0.49328236  0.62242318  0.78685267     0.09030
H17         H  0.49361071  0.59029742  0.91025964     0.06560
H18         H  0.49844890  0.71362503  0.87790583     0.06410
C19         C  0.81242383  0.67447565  0.51657029     0.03440
C20         C  0.85314262  0.68498700  0.51839296    -0.12710
C21         C  0.88215128  0.65535417  0.51486520     0.00940
C22         C  0.86969568  0.61608299  0.50872393    -0.11230
C23         C  0.82993183  0.60411732  0.51067064     0.03430
C24         C  0.80095504  0.63380386  0.51438877    -0.10650
H25         H  0.86191883  0.71568389  0.52290761     0.09030
H26         H  0.89220693  0.59372480  0.50373874     0.06560
H27         H  0.76990185  0.62563673  0.51517795     0.06410
C28         C  0.68829125  0.79312234  0.52533876     0.03440
C29         C  0.64766087  0.78222816  0.52454219    -0.12710
C30         C  0.61835281  0.81162298  0.52771978     0.00940
C31         C  0.63050259  0.85145026  0.53072410    -0.11230
C32         C  0.67023786  0.86352068  0.52886709     0.03430
C33         C  0.69942059  0.83391666  0.52629378    -0.10650
H34         H  0.63912933  0.75128752  0.52144441     0.09030
H35         H  0.60795809  0.87417054  0.53306854     0.06560
H36         H  0.73041753  0.84228074  0.52531608     0.06410
C37         C  0.80745118  0.48293818  0.70717360     0.03440
C38         C  0.84776550  0.47860798  0.71817163    -0.12710
C39         C  0.87719383  0.47989064  0.68910856     0.00940
C40         C  0.86576145  0.48457865  0.64934830    -0.11230
C41         C  0.82617719  0.48682074  0.63684539     0.03430
C42         C  0.79657643  0.48589600  0.66623934    -0.10650
H43         H  0.85602859  0.47375692  0.74895935     0.09030
H44         H  0.88886460  0.48615003  0.62716362     0.06560
H45         H  0.76567688  0.48806311  0.65768628     0.06410
C46         C  0.68691683  0.48135522  0.82970731     0.03440
C47         C  0.69807889  0.48141840  0.87061284    -0.12710
C48         C  0.66922792  0.48716650  0.90007177     0.00940
C49         C  0.63005203  0.49371293  0.88767881    -0.11230
C50         C  0.61769851  0.49070125  0.84803485     0.03430
C51         C  0.64653530  0.48538840  0.81872002    -0.10650
H52         H  0.72878188  0.47719855  0.87913533     0.09030
H53         H  0.60784130  0.49965682  0.91000067     0.06560
H54         H  0.63779755  0.48515046  0.78771580     0.06410
C55         C  0.81190296  0.78777502  0.02487884     0.03440
C56         C  0.80024068  0.82856539  0.02572583    -0.12710
C57         C  0.82890755  0.85871595  0.02408644     0.00940
C58         C  0.86868079  0.84745026  0.02170882    -0.11230
C59         C  0.88153861  0.80782645  0.02262401     0.03430
C60         C  0.85276800  0.77770339  0.02250542    -0.10650
H61         H  0.76920468  0.83655051  0.02760521     0.09030
H62         H  0.89067390  0.87067932  0.01861527     0.06560
H63         H  0.86206950  0.74702235  0.01990660     0.06410
C64         C  0.68445588  0.67111535  0.02248301     0.03440
C65         C  0.69539753  0.63018774  0.02151455    -0.12710
C66         C  0.66612795  0.60053244  0.02101600     0.00940
C67         C  0.62642176  0.61251339  0.01951301    -0.11230
C68         C  0.61449528  0.65232833  0.02238507     0.03430
C69         C  0.64381739  0.68179057  0.02468968    -0.10650
H70         H  0.72635903  0.62167054  0.02126331     0.09030
H71         H  0.60379988  0.58987869  0.01637273     0.06560
H72         H  0.63512245  0.71244871  0.02892984     0.06410
C73         C  0.81402102  0.97881994  0.82856485     0.03440
C74         C  0.80233450  0.97568230  0.86903378    -0.12710
C75         C  0.83114011  0.97354620  0.89908312     0.00940
C76         C  0.87111065  0.97453996  0.88779422    -0.11230
C77         C  0.88353280  0.98001947  0.84835513     0.03430
C78         C  0.85462937  0.98232758  0.81851112    -0.10650
H79         H  0.77120905  0.97452835  0.87679582     0.09030
H80         H  0.89354508  0.97190229  0.91071437     0.06560
H81         H  0.86347333  0.98740053  0.78795597     0.06410
C82         C  0.68991891  0.98413778  0.70974392     0.03440
C83         C  0.64955640  0.98009730  0.72054343    -0.12710
C84         C  0.62016404  0.98109292  0.69113023     0.00940
C85         C  0.63178256  0.98568388  0.65141853    -0.11230
C86         C  0.67145035  0.98797030  0.63948222     0.03430
C87         C  0.70084512  0.98702429  0.66902914    -0.10650
H88         H  0.64127474  0.97558524  0.75134274     0.09030
H89         H  0.60892444  0.98699194  0.62881871     0.06560
H90         H  0.73178891  0.98889371  0.66070134     0.06410
C91         C  0.99812132  0.79115500  0.83085821     0.03440
C92         C  0.99982809  0.83199725  0.81944739    -0.12710
C93         C  0.00219923  0.86153354  0.84876909     0.00940
C94         C  0.00522070  0.84937844  0.88848935    -0.11230
C95         C  0.99956769  0.80999150  0.90072023     0.03430
C96         C  0.99558155  0.78060918  0.87165248    -0.10650
H97         H  0.99928541  0.84045243  0.78829352     0.09030
H98         H  0.01087794  0.87169304  0.91101860     0.06560
H99         H  0.99005681  0.75012366  0.88056563     0.06410
C100        C  0.99500303  0.67248324  0.70640258     0.03440
C101        C  0.99187579  0.63180215  0.71795393    -0.12710
C102        C  0.99098351  0.60198254  0.68887165     0.00940
C103        C  0.99289441  0.61366718  0.64889813    -0.11230
C104        C  0.99846997  0.65319218  0.63670481     0.03430
C105        C  0.99986416  0.68282522  0.66578185    -0.10650
H106        H  0.98980350  0.62370064  0.74913271     0.09030
H107        H  0.99098317  0.59091928  0.62626316     0.06560
H108        H  0.00545183  0.71336313  0.65705466     0.06410
C109        C  0.50150746  0.17282426  0.70874881     0.03440
C110        C  0.49829062  0.18370030  0.66805193    -0.12710
C111        C  0.49729196  0.15401318  0.63890131     0.00940
C112        C  0.49993374  0.11420351  0.65127595    -0.11230
C113        C  0.50370905  0.10258891  0.69120911     0.03430
C114        C  0.50379547  0.13226423  0.72032822    -0.10650
H115        H  0.49648974  0.21479023  0.65944892     0.09030
H116        H  0.49922338  0.09121562  0.62881968     0.06560
H117        H  0.50623782  0.12419229  0.75150205     0.06410
C118        C  0.50140584  0.29275572  0.83075112     0.03440
C119        C  0.50219276  0.28182702  0.87154144    -0.12710
C120        C  0.50614115  0.31135485  0.90059132     0.00940
C121        C  0.51160981  0.35078270  0.88795829    -0.11230
C122        C  0.50843264  0.36282126  0.84804175     0.03430
C123        C  0.50355931  0.33332380  0.81910603    -0.10650
H124        H  0.49959390  0.25085320  0.88033455     0.09030
H125        H  0.51691578  0.37319095  0.91040629     0.06560
H126        H  0.50167266  0.34155429  0.78793617     0.06410
O127        O  0.44782530  0.99579600  0.66898037    -0.71470
O128        O  0.55525521  0.97160573  0.66838431    -0.71680
O129        O  0.48951704  0.92980178  0.66835111    -0.71540
O130        O  0.51358146  0.03755564  0.66877172    -0.71550
O131        O  0.50002285  0.04116870  0.73159672    -0.71510
O132        O  0.50346013  0.92522719  0.73114071    -0.71530
O133        O  0.55944981  0.98504607  0.73125883    -0.71470
O134        O  0.44444869  0.98160946  0.73181804    -0.71660
V135        V  0.50156132  0.98366435  0.66992841     1.35240
V136        V  0.50192292  0.98322260  0.73127585     1.35170
C137        C  0.42671982  0.98924657  0.69915687     0.77770
C138        C  0.57674111  0.97830402  0.69830130     0.77830
C139        C  0.49580552  0.90799131  0.69821985     0.77700
C140        C  0.50665820  0.05889007  0.69864964     0.77660
C141        C  0.00018436  0.17102770  0.83019228     0.03440
C142        C  0.99952698  0.18239097  0.87077587    -0.12710
C143        C  0.00310816  0.15321787  0.90044159     0.00940
C144        C  0.00856149  0.11362162  0.88867660    -0.11230
C145        C  0.00597008  0.10106943  0.84904996     0.03430
C146        C  0.00186345  0.13025821  0.81938156    -0.10650
H147        H  0.99639662  0.21344102  0.87888548     0.09030
H148        H  0.01365704  0.09146623  0.91157331     0.06560
H149        H  0.00064174  0.12167905  0.78834053     0.06410
C150        C  0.99394379  0.29301714  0.70928589     0.03440
C151        C  0.99662431  0.33362481  0.72040682    -0.12710
C152        C  0.99657981  0.36325214  0.69093670     0.00940
C153        C  0.99259787  0.35150126  0.65114402    -0.11230
C154        C  0.99105332  0.31156380  0.63916041     0.03430
C155        C  0.99211282  0.28200077  0.66865126    -0.10650
H156        H  0.99899407  0.34178343  0.75150015     0.09030
H157        H  0.99126530  0.37447903  0.62852451     0.06560
H158        H  0.99126391  0.25084906  0.66034960     0.06410
C159        C  0.19097810  0.98323273  0.83312004     0.03440
C160        C  0.20168195  0.98585824  0.87410775    -0.12710
C161        C  0.17197876  0.98780153  0.90327881     0.00940
C162        C  0.13248210  0.98912820  0.89041080    -0.11230
C163        C  0.12106444  0.98277798  0.85089893     0.03430
C164        C  0.15060344  0.97934114  0.82209505    -0.10650
H165        H  0.23257397  0.98645470  0.88293429     0.09030
H166        H  0.10947441  0.99415640  0.91221834     0.06560
H167        H  0.14236350  0.97327156  0.79158028     0.06410
C168        C  0.31399196  0.98101096  0.71281600     0.03440
C169        C  0.35454174  0.98596659  0.72276169    -0.12710
C170        C  0.38307722  0.98764975  0.69269794     0.00940
C171        C  0.37037620  0.98606086  0.65309184    -0.11230
C172        C  0.33072036  0.98088778  0.64192341     0.03430
C173        C  0.30217028  0.97865789  0.67214758    -0.10650
H174        H  0.36369187  0.98957354  0.75338900     0.09030
H175        H  0.39242590  0.98845434  0.62990254     0.06560
H176        H  0.27122043  0.97489899  0.66436454     0.06410
O177        O  0.06027684  0.98455706  0.81027553    -0.71470
O178        O  0.94517794  0.97843987  0.80908795    -0.71680
O179        O  0.00019144  0.03938565  0.80963659    -0.71540
O180        O  0.00580820  0.92360122  0.80928375    -0.71550
O181        O  0.99389879  0.92638401  0.87251307    -0.71510
O182        O  0.01069499  0.03560992  0.87311923    -0.71530
O183        O  0.94789382  0.98945897  0.87250912    -0.71470
O184        O  0.05651914  0.97254707  0.87355841    -0.71660
V185        V  0.00277713  0.98148309  0.80993123     1.35240
V186        V  0.00223367  0.98101575  0.87147091     1.35170
C187        C  0.07772871  0.97919632  0.84354347     0.77770
C188        C  0.92712870  0.98338480  0.84200262     0.77830
C189        C  0.00602971  0.05704609  0.84264431     0.77700
C190        C  0.00030970  0.90546464  0.84217651     0.77660
C191        C  0.18397920  0.48392336  0.70963001     0.03440
C192        C  0.19507837  0.48197902  0.66893939    -0.12710
C193        C  0.16597535  0.48221037  0.63918412     0.00940
C194        C  0.12618910  0.48296770  0.65086209    -0.11230
C195        C  0.11419099  0.48632813  0.69060210     0.03430
C196        C  0.14345830  0.48747619  0.72020573    -0.10650
H197        H  0.22606117  0.48033941  0.66071284     0.09030
H198        H  0.10359494  0.48077581  0.62806447     0.06560
H199        H  0.13489756  0.49171691  0.75089226     0.06410
C200        C  0.31131171  0.48323784  0.82537629     0.03440
C201        C  0.29997224  0.48663092  0.86589965    -0.12710
C202        C  0.32878850  0.48536032  0.89588637     0.00940
C203        C  0.36834081  0.47998334  0.88479978    -0.11230
C204        C  0.38065381  0.47679702  0.84520753     0.03430
C205        C  0.35174312  0.47783568  0.81520490    -0.10650
H206        H  0.26909913  0.49052651  0.87377310     0.09030
H207        H  0.39053494  0.47853187  0.90805045     0.06560
H208        H  0.36045604  0.47361477  0.78455519     0.06410
O209        O  0.99313407  0.42485902  0.73057129    -0.71470
O210        O  0.99712301  0.54076848  0.72942133    -0.71680
O211        O  0.93783796  0.48474784  0.72958362    -0.71540
O212        O  0.05300801  0.48092951  0.73030695    -0.71550
O213        O  0.04927838  0.49449239  0.66734225    -0.71510
O214        O  0.94201644  0.47006814  0.66701271    -0.71530
O215        O  0.98346918  0.53629335  0.66660306    -0.71470
O216        O  0.00758333  0.42825721  0.66789718    -0.71660
V217        V  0.99536087  0.48279578  0.72981871     1.35240
V218        V  0.99561723  0.48230387  0.66850535     1.35170
C219        C  0.00000122  0.40700357  0.69788435     0.77770
C220        C  0.98970873  0.55809782  0.69639283     0.77830
C221        C  0.92055416  0.47728093  0.69667703     0.77700
C222        C  0.07058148  0.48802837  0.69747152     0.77660
O223        O  0.51225282  0.42848109  0.87065218    -0.71470
O224        O  0.48545350  0.53554980  0.87000192    -0.71680
O225        O  0.44540200  0.46842375  0.86923190    -0.71540
O226        O  0.55223963  0.49540812  0.87090342    -0.71550
O227        O  0.55715062  0.48231891  0.80805028    -0.71510
O228        O  0.44210326  0.48206804  0.80628004    -0.71530
O229        O  0.49965494  0.54006094  0.80734778    -0.71470
O230        O  0.49995770  0.42397300  0.80758250    -0.71660
V231        V  0.49882981  0.48194613  0.86886707     1.35240
V232        V  0.49965498  0.48204736  0.80751585     1.35170
C233        C  0.50748493  0.40671096  0.84066164     0.77770
C234        C  0.49192440  0.55732954  0.84018589     0.77830
C235        C  0.42431143  0.47467640  0.83886537     0.77700
C236        C  0.57406954  0.49021290  0.84101890     0.77660
C237        C  0.49446948  0.67150957  0.20793423     0.03440
C238        C  0.49399877  0.63071190  0.21911313    -0.12710
C239        C  0.49318578  0.60127510  0.18967768     0.00940
C240        C  0.49358601  0.61346819  0.14979525    -0.11230
C241        C  0.49252542  0.65346482  0.13781405     0.03430
C242        C  0.49285758  0.68281106  0.16726681    -0.10650
H243        H  0.49442122  0.62223839  0.25026820     0.09030
H244        H  0.49510400  0.59081417  0.12704799     0.06560
H245        H  0.49179131  0.71398375  0.15886495     0.06410
C246        C  0.49546349  0.79049827  0.33118314     0.03440
C247        C  0.49953952  0.77956056  0.37180156    -0.12710
C248        C  0.50282308  0.80920478  0.40082790     0.00940
C249        C  0.50241268  0.84909173  0.38833809    -0.11230
C250        C  0.49687659  0.86084086  0.34871546     0.03430
C251        C  0.49417192  0.83117272  0.31967727    -0.10650
H252        H  0.50052401  0.74845153  0.38044827     0.09030
H253        H  0.50596819  0.87216256  0.41044518     0.06560
H254        H  0.49073900  0.83935927  0.28862588     0.06410
O255        O  0.44114691  0.63176974  0.00795203    -0.71470
O256        O  0.54920457  0.62958645  0.02937593    -0.71680
O257        O  0.48453754  0.63076537  0.07267239    -0.71540
O258        O  0.50563215  0.63021521  0.96453401    -0.71550
O259        O  0.49361098  0.69344281  0.96050870    -0.71510
O260        O  0.49863262  0.69355860  0.07636771    -0.71530
O261        O  0.55376844  0.69265837  0.01632241    -0.71470
O262        O  0.43866114  0.69481293  0.02108267    -0.71660
V263        V  0.49516395  0.63194617  0.01862731     1.35240
V264        V  0.49620957  0.69338865  0.01847605     1.35170
C265        C  0.42046803  0.66215516  0.01499781     0.77770
C266        C  0.57089240  0.65950353  0.02325615     0.77830
C267        C  0.49137327  0.66068369  0.09402481     0.77700
C268        C  0.49941669  0.66028336  0.94301006     0.77660
C269        C  0.18965931  0.79886594  0.01652142     0.03440
C270        C  0.14935036  0.78694726  0.01532602    -0.12710
C271        C  0.11934388  0.81558491  0.01747637     0.00940
C272        C  0.13033337  0.85561835  0.02147994    -0.11230
C273        C  0.16986895  0.86846709  0.02272655     0.03430
C274        C  0.19981518  0.83964112  0.02070564    -0.10650
H275        H  0.14164942  0.75574352  0.01244839     0.09030
H276        H  0.10706512  0.87764658  0.02368171     0.06560
H277        H  0.23054146  0.84863580  0.02301962     0.06410
C278        C  0.30681086  0.67330547  0.01596176     0.03440
C279        C  0.34734053  0.68480066  0.01550686    -0.12710
C280        C  0.37688305  0.65562303  0.01813087     0.00940
C281        C  0.36518875  0.61607072  0.02361742    -0.11230
C282        C  0.32578875  0.60334741  0.02073179     0.03430
C283        C  0.29630236  0.63234444  0.01602027    -0.10650
H284        H  0.35553565  0.71594073  0.01329972     0.09030
H285        H  0.38808403  0.59412930  0.02893130     0.06560
H286        H  0.26565321  0.62334533  0.01289668     0.06410
C287        C  0.99960270  0.79299649  0.20869732     0.03440
C288        C  0.99758986  0.83345353  0.22035081    -0.12710
C289        C  0.99921452  0.86339992  0.19131306     0.00940
C290        C  0.00416549  0.85208507  0.15150504    -0.11230
C291        C  0.00421639  0.81233078  0.13900970     0.03430
C292        C  0.00157880  0.78246677  0.16799970    -0.10650
H293        H  0.99475709  0.84125436  0.25148443     0.09030
H294        H  0.00718134  0.87525255  0.12925000     0.06560
H295        H  0.00165831  0.75141626  0.15928410     0.06410
C296        C  0.99599923  0.67032011  0.32832071     0.03440
C297        C  0.99611091  0.62970600  0.31698635    -0.12710
C298        C  0.99841767  0.60010062  0.34633834     0.00940
C299        C  0.00205285  0.61196966  0.38611679    -0.11230
C300        C  0.00007984  0.65177315  0.39822224     0.03430
C301        C  0.99775778  0.68133665  0.36891377    -0.10650
H302        H  0.99422134  0.62152828  0.28586563     0.09030
H303        H  0.00628781  0.58924107  0.40867912     0.06560
H304        H  0.99706666  0.71245981  0.37733825     0.06410
O305        O  0.05942114  0.77377796  0.02234469    -0.71470
O306        O  0.94411501  0.76960266  0.01790893    -0.71680
O307        O  0.00397921  0.77096735  0.96252413    -0.71540
O308        O  0.99986130  0.77222979  0.07796995    -0.71550
O309        O  0.00985244  0.83580880  0.07354361    -0.71510
O310        O  0.98954243  0.83380524  0.96500729    -0.71530
O311        O  0.94584205  0.83296964  0.02929008    -0.71470
O312        O  0.05376230  0.83672911  0.00915163    -0.71660
V313        V  0.00181021  0.77193993  0.02019602     1.35240
V314        V  0.99976996  0.83342605  0.01926361     1.35170
C315        C  0.07595172  0.80730684  0.01567998     0.77770
C316        C  0.92547302  0.80211307  0.02356942     0.77830
C317        C  0.99693967  0.80354641  0.94434366     0.77700
C318        C  0.00524061  0.80553473  0.09522857     0.77660
C319        C  0.19086121  0.66648503  0.51585530     0.03440
C320        C  0.15044528  0.67849336  0.51649066    -0.12710
C321        C  0.12036363  0.64965476  0.51771149     0.00940
C322        C  0.13152527  0.60953439  0.51997896    -0.11230
C323        C  0.17077120  0.59665939  0.51658874     0.03430
C324        C  0.20069142  0.62544860  0.51409609    -0.10650
H325        H  0.14272783  0.70981945  0.51601064     0.09030
H326        H  0.10863873  0.58728219  0.52394036     0.06560
H327        H  0.23113907  0.61613362  0.51034421     0.06410
C328        C  0.31007010  0.79087494  0.51463255     0.03440
C329        C  0.29939800  0.83162718  0.51808251    -0.12710
C330        C  0.32895980  0.86082756  0.52006095     0.00940
C331        C  0.36850998  0.84841123  0.52162176    -0.11230
C332        C  0.38030749  0.80878001  0.51698018     0.03430
C333        C  0.35071595  0.77959400  0.51390604    -0.10650
H334        H  0.26861244  0.84040616  0.51968071     0.09030
H335        H  0.39122076  0.87068440  0.52636812     0.06560
H336        H  0.35895575  0.74856341  0.51085797     0.06410
O337        O  0.99832120  0.69281519  0.57484236    -0.71470
O338        O  0.00556110  0.69168616  0.45938687    -0.71680
O339        O  0.94456506  0.69372558  0.51317332    -0.71540
O340        O  0.05973333  0.69091024  0.52091539    -0.71550
O341        O  0.05496891  0.62756167  0.51007291    -0.71510
O342        O  0.94608698  0.63043105  0.52579501    -0.71530
O343        O  0.99253595  0.62860827  0.46336298    -0.71470
O344        O  0.00868206  0.62922411  0.57243741    -0.71660
V345        V  0.00210379  0.69194625  0.51712489     1.35240
V346        V  0.00061337  0.63039765  0.51791002     1.35170
C347        C  0.00266511  0.65975752  0.59309045     0.77770
C348        C  0.99915610  0.65865868  0.44193453     0.77830
C349        C  0.92587680  0.66117751  0.51862934     0.77700
C350        C  0.07677214  0.65740975  0.51592975     0.77660
O351        O  0.48770208  0.83434035  0.57359655    -0.71470
O352        O  0.51019717  0.83290341  0.46573427    -0.71680
O353        O  0.44498891  0.83246875  0.50817290    -0.71540
O354        O  0.55277194  0.83458530  0.53096566    -0.71550
O355        O  0.55751763  0.77130212  0.51989838    -0.71510
O356        O  0.44209785  0.76952624  0.52211345    -0.71530
O357        O  0.49842585  0.76962795  0.46284873    -0.71470
O358        O  0.50111626  0.77145878  0.57869173    -0.71660
V359        V  0.49892107  0.83218219  0.51961748     1.35240
V360        V  0.49980499  0.77073359  0.52081181     1.35170
C361        C  0.49400941  0.80461925  0.59561233     0.77770
C362        C  0.50461537  0.80249019  0.44474230     0.77830
C363        C  0.42405885  0.80215465  0.51504092     0.77700
C364        C  0.57459219  0.80453882  0.52648559     0.77660
C365        C  0.50409148  0.16970876  0.33033623     0.03440
C366        C  0.50532228  0.18103069  0.37089824    -0.12710
C367        C  0.50746838  0.15170969  0.40055652     0.00940
C368        C  0.50839353  0.11171516  0.38881727    -0.11230
C369        C  0.50689487  0.09953783  0.34898461     0.03430
C370        C  0.50480399  0.12897901  0.31938688    -0.10650
H371        H  0.50454106  0.21222905  0.37902764     0.09030
H372        H  0.50919391  0.08904628  0.41174337     0.06560
H373        H  0.50365783  0.12056354  0.28829655     0.06410
C374        C  0.50232321  0.29219380  0.20987226     0.03440
C375        C  0.50210367  0.33282573  0.22123091    -0.12710
C376        C  0.49877939  0.36244757  0.19195714     0.00940
C377        C  0.49356476  0.35064030  0.15242180    -0.11230
C378        C  0.49677837  0.31101507  0.13999545     0.03430
C379        C  0.50042804  0.28132839  0.16917354    -0.10650
H380        H  0.50489495  0.34101876  0.25228102     0.09030
H381        H  0.48798822  0.37346887  0.13023821     0.06560
H382        H  0.50216209  0.25029897  0.16057992     0.06410
O383        O  0.44618848  0.99197796  0.37223663    -0.71470
O384        O  0.55343632  0.96784331  0.37192731    -0.71680
O385        O  0.51183281  0.03382624  0.37219485    -0.71540
O386        O  0.48780628  0.92590039  0.37172088    -0.71550
O387        O  0.50078747  0.92246023  0.30874978    -0.71510
O388        O  0.49878383  0.03835242  0.30922968    -0.71530
O389        O  0.55735523  0.98127752  0.30902417    -0.71470
O390        O  0.44177926  0.97931773  0.30927567    -0.71660
V391        V  0.49979183  0.97991004  0.37065637     1.35240
V392        V  0.49959362  0.98038613  0.30928517     1.35170
C393        C  0.42451533  0.98603267  0.34233297     0.77770
C394        C  0.57487455  0.97366305  0.34188136     0.77830
C395        C  0.50627132  0.05561816  0.34213381     0.77700
C396        C  0.49430310  0.90464462  0.34164306     0.77660
O397        O  0.44615969  0.33657240  0.02292667    -0.71470
O398        O  0.55569199  0.33498020  0.01773854    -0.71680
O399        O  0.49824093  0.33591521  0.96514366    -0.71540
O400        O  0.50372650  0.33559607  0.07530064    -0.71550
O401        O  0.49555504  0.27166732  0.07809361    -0.71510
O402        O  0.50478522  0.27180817  0.96266540    -0.71530
O403        O  0.55745819  0.27088653  0.02520300    -0.71470
O404        O  0.44268733  0.27261372  0.01547544    -0.71660
V405        V  0.50092154  0.33413676  0.02028040     1.35240
V406        V  0.50008657  0.27231215  0.02037597     1.35170
C407        C  0.42513573  0.30610433  0.01780463     0.77770
C408        C  0.57589461  0.30388822  0.02270355     0.77830
C409        C  0.50280918  0.30510996  0.94446257     0.77700
C410        C  0.49874706  0.30482288  0.09613576     0.77660
C411        C  0.18627100  0.28737015  0.51986366     0.03440
C412        C  0.19757033  0.32817676  0.52025884    -0.12710
C413        C  0.16956729  0.35753108  0.52922314     0.00940
C414        C  0.13104309  0.34534159  0.53847404    -0.11230
C415        C  0.11766094  0.30640431  0.53246953     0.03430
C416        C  0.14584890  0.27675865  0.52486491    -0.10650
H417        H  0.22794645  0.33670671  0.51422634     0.09030
H418        H  0.10989760  0.36761854  0.54784958     0.06560
H419        H  0.13653572  0.24600790  0.52396584     0.06410
C420        C  0.31259590  0.17045578  0.51695888     0.03440
C421        C  0.35301931  0.18116860  0.51278813    -0.12710
C422        C  0.38241027  0.15188585  0.51510734     0.00940
C423        C  0.37071604  0.11218600  0.52018376    -0.11230
C424        C  0.33100887  0.10019129  0.52218593     0.03430
C425        C  0.30166588  0.12971157  0.52062181    -0.10650
H426        H  0.36142868  0.21178522  0.50733335     0.09030
H427        H  0.39355118  0.08967195  0.52233930     0.06560
H428        H  0.27074206  0.12133268  0.52289162     0.06410
O429        O  0.99999661  0.27060512  0.46243508    -0.71470
O430        O  0.99678144  0.27110166  0.57829034    -0.71680
O431        O  0.94076722  0.27239406  0.51871994    -0.71540
O432        O  0.05570293  0.26893167  0.52241125    -0.71550
O433        O  0.05320710  0.33233793  0.53364903    -0.71510
O434        O  0.94642945  0.33548924  0.50627675    -0.71530
O435        O  0.98646421  0.33456875  0.57343101    -0.71470
O436        O  0.01337041  0.33351531  0.46647210    -0.71660
V437        V  0.99823599  0.27107762  0.52038269     1.35240
V438        V  0.99983736  0.33257636  0.51992530     1.35170
C439        C  0.00851568  0.30330424  0.44498498     0.77770
C440        C  0.99065898  0.30439191  0.59534209     0.77830
C441        C  0.92426375  0.30576052  0.51139485     0.77700
C442        C  0.07381158  0.30126563  0.53018553     0.77660
O443        O  0.28983925  0.92284931  0.52510263    -0.71470
O444        O  0.29089452  0.03874086  0.51930745    -0.71680
O445        O  0.29032455  0.97819946  0.46425561    -0.71540
O446        O  0.29045652  0.98360419  0.58024550    -0.71550
O447        O  0.35324741  0.97108023  0.57687988    -0.71510
O448        O  0.35339797  0.98929828  0.46779360    -0.71530
O449        O  0.35382411  0.03483401  0.53126420    -0.71470
O450        O  0.35283656  0.92585676  0.51354732    -0.71660
V451        V  0.29069440  0.98080746  0.52225451     1.35240
V452        V  0.35188853  0.98027855  0.52238029     1.35170
C453        C  0.32255489  0.90480990  0.51940700     0.77770
C454        C  0.32389549  0.05633390  0.52500567     0.77830
C455        C  0.32319308  0.98383816  0.44643106     0.77700
C456        C  0.32333812  0.97774418  0.59811816     0.77660
C457        C  0.18638541  0.17806664  0.02099107     0.03440
C458        C  0.14553322  0.18798537  0.02007445    -0.12710
C459        C  0.11719562  0.15804457  0.02571331     0.00940
C460        C  0.13043294  0.11912801  0.03237456    -0.11230
C461        C  0.16981591  0.10765888  0.02674577     0.03430
C462        C  0.19836499  0.13753775  0.02237056    -0.10650
H463        H  0.13610383  0.21832722  0.01453843     0.09030
H464        H  0.10883997  0.09636110  0.03969383     0.06560
H465        H  0.22937263  0.12957961  0.01987336     0.06410
C466        C  0.31195096  0.29450978  0.01359965     0.03440
C467        C  0.35241081  0.28362470  0.01656837    -0.12710
C468        C  0.38173122  0.31294732  0.01357049     0.00940
C469        C  0.36986564  0.35253706  0.00773334    -0.11230
C470        C  0.33016011  0.36461803  0.00846492     0.03430
C471        C  0.30091386  0.33519812  0.01107884    -0.10650
H472        H  0.36079833  0.25291069  0.02176300     0.09030
H473        H  0.39256047  0.37500745  0.00405446     0.06560
H474        H  0.26991907  0.34363376  0.01087747     0.06410
C475        C  0.18545653  0.98496618  0.21387156     0.03440
C476        C  0.19692593  0.98698562  0.17323437    -0.12710
C477        C  0.16790857  0.98882279  0.14331855     0.00940
C478        C  0.12806950  0.98865587  0.15492455    -0.11230
C479        C  0.11570747  0.98415179  0.19441849     0.03430
C480        C  0.14477410  0.98234115  0.22425105    -0.10650
H481        H  0.22800901  0.98769642  0.16526572     0.09030
H482        H  0.10553290  0.99144691  0.13215271     0.06560
H483        H  0.13604963  0.97855560  0.25503328     0.06410
C484        C  0.31068523  0.98230139  0.33206893     0.03440
C485        C  0.35109855  0.98465525  0.32065050    -0.12710
C486        C  0.38085264  0.98485818  0.34981517     0.00940
C487        C  0.36935198  0.98327303  0.38987843    -0.11230
C488        C  0.32975400  0.98314178  0.40234474     0.03430
C489        C  0.30012661  0.98221214  0.37300589    -0.10650
H490        H  0.35912597  0.98671320  0.28952588     0.09030
H491        H  0.39227194  0.98187974  0.41239240     0.06560
H492        H  0.26923337  0.98148883  0.38168019     0.06410
C493        C  0.99804100  0.17217094  0.20941767     0.03440
C494        C  0.99748275  0.13155668  0.22096750    -0.12710
C495        C  0.99431683  0.10204962  0.19186101     0.00940
C496        C  0.98984426  0.11399035  0.15210509    -0.11230
C497        C  0.99347720  0.15367045  0.13956624     0.03430
C498        C  0.99665872  0.18323202  0.16868232    -0.10650
H499        H  0.00016865  0.12327540  0.25206791     0.09030
H500        H  0.98473672  0.09128737  0.12984072     0.06560
H501        H  0.99869681  0.21428546  0.16000495     0.06410
C502        C  0.00325498  0.29186390  0.33128143     0.03440
C503        C  0.00561268  0.33239309  0.31975580    -0.12710
C504        C  0.01157704  0.36166887  0.34867168     0.00940
C505        C  0.01613223  0.34941529  0.38839021    -0.11230
C506        C  0.01074041  0.30990043  0.40103814     0.03430
C507        C  0.00485189  0.28069757  0.37196258    -0.10650
H508        H  0.00286422  0.34078473  0.28868897     0.09030
H509        H  0.02198353  0.37187024  0.41062673     0.06560
H510        H  0.00161944  0.24974217  0.38061974     0.06410
O511        O  0.05357925  0.98655304  0.23306237    -0.71470
O512        O  0.93848743  0.97848758  0.23089757    -0.71680
O513        O  0.00024809  0.92463400  0.23178099    -0.71540
O514        O  0.99184332  0.04029834  0.23183147    -0.71550
O515        O  0.00503688  0.03744951  0.16884178    -0.71510
O516        O  0.98887794  0.92828528  0.16841764    -0.71530
O517        O  0.94263705  0.99097616  0.16778120    -0.71470
O518        O  0.05141177  0.97462204  0.16981384    -0.71660
V519        V  0.99603894  0.98247653  0.23160040     1.35240
V520        V  0.99698472  0.98281827  0.17013403     1.35170
C521        C  0.07196131  0.98112866  0.20044353     0.77770
C522        C  0.92113528  0.98445853  0.19766143     0.77830
C523        C  0.99545616  0.90699221  0.19857248     0.77700
C524        C  0.99755858  0.05834602  0.19888471     0.77660
O525        O  0.14589606  0.93354443  0.02972084    -0.71470
O526        O  0.14649937  0.04318312  0.01616713    -0.71680
O527        O  0.14720201  0.98181665  0.96808491    -0.71540
O528        O  0.14530170  0.99513983  0.07759881    -0.71550
O529        O  0.20847174  0.98510855  0.08215606    -0.71510
O530        O  0.21054660  0.99156855  0.96616770    -0.71530
O531        O  0.20960604  0.04607624  0.02770648    -0.71470
O532        O  0.20934436  0.93037713  0.02108347    -0.71660
V533        V  0.14775509  0.98840044  0.02289612     1.35240
V534        V  0.20906881  0.98826414  0.02420233     1.35170
C535        C  0.17629592  0.91242670  0.02510346     0.77770
C536        C  0.17667661  0.06404728  0.02309919     0.77830
C537        C  0.17789572  0.98700010  0.94751415     0.77700
C538        C  0.17525830  0.99015176  0.09941351     0.77660
O539        O  0.05438859  0.19537858  0.02494558    -0.71470
O540        O  0.93984229  0.19112665  0.01440130    -0.71680
O541        O  0.99202294  0.19312015  0.07741014    -0.71540
O542        O  0.00213078  0.19323180  0.96199555    -0.71550
O543        O  0.99526729  0.12918292  0.96522676    -0.71510
O544        O  0.00323238  0.12964371  0.07518407    -0.71530
O545        O  0.94458016  0.12746105  0.02391660    -0.71470
O546        O  0.05400779  0.13146033  0.01629203    -0.71660
V547        V  0.99710833  0.19271926  0.01970614     1.35240
V548        V  0.99924270  0.13100523  0.02014417     1.35170
C549        C  0.07353474  0.16286950  0.02192998     0.77770
C550        C  0.92295073  0.15737650  0.01789355     0.77830
C551        C  0.99646589  0.16010462  0.09574014     0.77700
C552        C  0.99983255  0.15987187  0.94417442     0.77660
C553        C  0.19158090  0.47945095  0.33047664     0.03440
C554        C  0.20195942  0.47518025  0.37124905    -0.12710
C555        C  0.17258727  0.47810943  0.40045931     0.00940
C556        C  0.13355915  0.48542256  0.38819136    -0.11230
C557        C  0.12175738  0.48614461  0.34824463     0.03430
C558        C  0.15118622  0.48327683  0.31905392    -0.10650
H559        H  0.23229898  0.46922856  0.37994615     0.09030
H560        H  0.11120017  0.48941058  0.41083521     0.06560
H561        H  0.14302874  0.48458016  0.28785547     0.06410
C562        C  0.30830111  0.47708122  0.20445566     0.03440
C563        C  0.34876108  0.47634301  0.21632226    -0.12710
C564        C  0.37870530  0.47618152  0.18754862     0.00940
C565        C  0.36741903  0.47635741  0.14734964    -0.11230
C566        C  0.32788168  0.47748044  0.13452290     0.03430
C567        C  0.29812509  0.47907586  0.16346787    -0.10650
H568        H  0.35664408  0.47567073  0.24760909     0.09030
H569        H  0.39044816  0.47662293  0.12504483     0.06560
H570        H  0.26755103  0.48225145  0.15428063     0.06410
O571        O  0.00400337  0.53860788  0.30673422    -0.71470
O572        O  0.00292100  0.42264124  0.30821910    -0.71680
O573        O  0.94552139  0.48125280  0.30677169    -0.71540
O574        O  0.06088356  0.48004110  0.30792227    -0.71550
O575        O  0.05640823  0.49364573  0.37067343    -0.71510
O576        O  0.94906600  0.46875279  0.36992304    -0.71530
O577        O  0.01509737  0.42741827  0.37130972    -0.71470
O578        O  0.99040125  0.53499029  0.36959078    -0.71660
V579        V  0.00324371  0.48063167  0.30763734     1.35240
V580        V  0.00272945  0.48118621  0.36901412     1.35170
C581        C  0.99695904  0.55631220  0.33946303     0.77770
C582        C  0.01036220  0.40553711  0.34137652     0.77830
C583        C  0.92780532  0.47443911  0.33957684     0.77700
C584        C  0.07809642  0.48750430  0.34087071     0.77660
O585        O  0.28858381  0.48196728  0.95690115    -0.71470
O586        O  0.28844456  0.48402307  0.07273701    -0.71680
O587        O  0.28721856  0.54115488  0.01371077    -0.71540
O588        O  0.28974559  0.42527572  0.01561457    -0.71550
O589        O  0.35254514  0.43048782  0.00364246    -0.71510
O590        O  0.35005658  0.53837977  0.02628354    -0.71530
O591        O  0.35153558  0.47313760  0.06910727    -0.71470
O592        O  0.35107115  0.49605548  0.96092409    -0.71660
V593        V  0.28876712  0.48317690  0.01476995     1.35240
V594        V  0.34991137  0.48450498  0.01499038     1.35170
C595        C  0.32136364  0.48880708  0.93943587     0.77770
C596        C  0.32135301  0.47792028  0.09048005     0.77830
C597        C  0.31964253  0.55932024  0.02074876     0.77700
C598        C  0.32283117  0.40841281  0.00862650     0.77660
O599        O  0.14403175  0.48644446  0.57307316    -0.71470
O600        O  0.14777707  0.46764021  0.46444006    -0.71680
O601        O  0.14538340  0.42277199  0.52826306    -0.71540
O602        O  0.14654998  0.53170231  0.50912081    -0.71550
O603        O  0.20938645  0.53471897  0.52207856    -0.71510
O604        O  0.20893851  0.41894166  0.52058306    -0.71530
O605        O  0.21098531  0.47849633  0.46315149    -0.71470
O606        O  0.20706211  0.47580167  0.57893075    -0.71660
V607        V  0.14741318  0.47711482  0.51873707     1.35240
V608        V  0.20868586  0.47688715  0.52106394     1.35170
C609        C  0.17361729  0.48163811  0.59544714     0.77770
C610        C  0.17852533  0.47376078  0.44427774     0.77830
C611        C  0.17590926  0.40140667  0.52612166     0.77700
C612        C  0.17682653  0.55271241  0.51537281     0.77660
O613        O  0.51355426  0.12934865  0.46639488    -0.71470
O614        O  0.48866297  0.13054169  0.57392204    -0.71680
O615        O  0.44751326  0.12929657  0.50745126    -0.71540
O616        O  0.55475140  0.13050891  0.53278963    -0.71550
O617        O  0.55819754  0.19323109  0.51784555    -0.71510
O618        O  0.44307751  0.19233718  0.52018152    -0.71530
O619        O  0.50206359  0.19351736  0.57701092    -0.71470
O620        O  0.49952893  0.19208295  0.46121251    -0.71660
V621        V  0.50109597  0.13122735  0.52012694     1.35240
V622        V  0.50066454  0.19261249  0.51909822     1.35170
C623        C  0.50737419  0.15908414  0.44431559     0.77770
C624        C  0.49513908  0.16076244  0.59501982     0.77830
C625        C  0.42590201  0.15922587  0.51333690     0.77700
C626        C  0.57588479  0.16055295  0.52551199     0.77660
O627        O  0.48719961  0.53571993  0.16668535    -0.71470
O628        O  0.50905012  0.42727487  0.16835531    -0.71680
O629        O  0.44438082  0.47036665  0.16616294    -0.71540
O630        O  0.55192612  0.49276874  0.16844572    -0.71550
O631        O  0.55478783  0.48011144  0.23156433    -0.71510
O632        O  0.43912842  0.48353463  0.22893716    -0.71530
O633        O  0.49484436  0.42413654  0.23113079    -0.71470
O634        O  0.49872253  0.53988869  0.22994372    -0.71660
V635        V  0.49814313  0.48155441  0.16879099     1.35240
V636        V  0.49692945  0.48196851  0.23016531     1.35170
C637        C  0.49260627  0.55734732  0.19675318     0.77770
C638        C  0.50159508  0.40620073  0.19852289     0.77830
C639        C  0.42231612  0.47623734  0.19565939     0.77700
C640        C  0.57288196  0.48656643  0.19883883     0.77660
C641        C  0.68671439  0.48127137  0.21057762     0.03440
C642        C  0.64619984  0.48477315  0.22151232    -0.12710
C643        C  0.61668310  0.48449310  0.19206358     0.00940
C644        C  0.62855144  0.48152509  0.15220313    -0.11230
C645        C  0.66820176  0.47957364  0.14013141     0.03430
C646        C  0.69755626  0.47952589  0.16973206    -0.10650
H647        H  0.63789676  0.48831155  0.25238192     0.09030
H648        H  0.60584675  0.48091023  0.12946309     0.06560
H649        H  0.72847069  0.47760408  0.16132670     0.06410
C650        C  0.81421347  0.47963508  0.32679153     0.03440
C651        C  0.85482720  0.47619060  0.31630089    -0.12710
C652        C  0.88399669  0.47554101  0.34613364     0.00940
C653        C  0.87172246  0.47715566  0.38591061    -0.11230
C654        C  0.83192133  0.47878762  0.39745166     0.03430
C655        C  0.80296160  0.48052420  0.36752094    -0.10650
H656        H  0.86350842  0.47342256  0.28546246     0.09030
H657        H  0.89417101  0.47767953  0.40892550     0.06560
H658        H  0.77196448  0.48244859  0.37562400     0.06410
O659        O  0.64496488  0.48704568  0.96527709    -0.71470
O660        O  0.64491236  0.47250794  0.07470416    -0.71680
O661        O  0.64345068  0.53468932  0.02679564    -0.71540
O662        O  0.64649953  0.42508083  0.01289632    -0.71550
O663        O  0.70992136  0.42354677  0.02259894    -0.71510
O664        O  0.70682701  0.53949716  0.01825037    -0.71530
O665        O  0.70801058  0.48332139  0.07837241    -0.71470
O666        O  0.70861362  0.48028500  0.96222593    -0.71660
V667        V  0.64653012  0.47984273  0.01992160     1.35240
V668        V  0.70787253  0.48155336  0.02032267     1.35170
C669        C  0.67560353  0.48484796  0.94419079     0.77770
C670        C  0.67506287  0.47792970  0.09610661     0.77830
C671        C  0.67338366  0.55660500  0.02225460     0.77700
C672        C  0.67734057  0.40477597  0.01856835     0.77660
C673        C  0.80987146  0.16840788  0.01535543     0.03440
C674        C  0.85039975  0.17927787  0.01427978    -0.12710
C675        C  0.87961015  0.14985387  0.01459267     0.00940
C676        C  0.86779082  0.10996909  0.01248720    -0.11230
C677        C  0.82803719  0.09787401  0.01237164     0.03430
C678        C  0.79874647  0.12750602  0.01438400    -0.10650
H679        H  0.85908542  0.21026255  0.01330056     0.09030
H680        H  0.89062025  0.08740781  0.01144365     0.06560
H681        H  0.76776251  0.11908305  0.01512946     0.06410
C682        C  0.68850445  0.29033199  0.01595113     0.03440
C683        C  0.70000421  0.33115384  0.01594134    -0.12710
C684        C  0.67140856  0.36080453  0.02204169     0.00940
C685        C  0.63248985  0.34877383  0.02968611    -0.11230
C686        C  0.61956328  0.30950373  0.02510685     0.03430
C687        C  0.64801511  0.27975473  0.01988579    -0.10650
H688        H  0.73066289  0.33944436  0.01118169     0.09030
H689        H  0.61086236  0.37125988  0.03749413     0.06560
H690        H  0.63886027  0.24889812  0.01939127     0.06410
C691        C  0.80744604  0.98212394  0.20782922     0.03440
C692        C  0.79663540  0.98307617  0.16697773    -0.12710
C693        C  0.82619563  0.98302264  0.13776754     0.00940
C694        C  0.86581462  0.98156763  0.15026483    -0.11230
C695        C  0.87750529  0.98283442  0.19025860     0.03430
C696        C  0.84790109  0.98275529  0.21940832    -0.10650
H697        H  0.76569973  0.98372442  0.15829216     0.09030
H698        H  0.88862662  0.97925708  0.12783858     0.06560
H699        H  0.85598130  0.98302811  0.25064607     0.06410
C700        C  0.68833301  0.98014802  0.33076014     0.03440
C701        C  0.64781705  0.97815946  0.31958374    -0.12710
C702        C  0.61868064  0.97343657  0.34885568     0.00940
C703        C  0.63100158  0.97037223  0.38865557    -0.11230
C704        C  0.67059149  0.97415584  0.40087344     0.03430
C705        C  0.69961966  0.97854544  0.37144009    -0.10650
H706        H  0.63933483  0.98013224  0.28850613     0.09030
H707        H  0.60862287  0.96640331  0.41126600     0.06560
H708        H  0.73057272  0.98050320  0.37985019     0.06410
O709        O  0.85102961  0.92440000  0.03154082    -0.71470
O710        O  0.85118067  0.03227319  0.00667967    -0.71680
O711        O  0.84991789  0.99053606  0.07281185    -0.71540
O712        O  0.85252879  0.96611890  0.96516264    -0.71550
O713        O  0.78996362  0.97919078  0.95954059    -0.71510
O714        O  0.78733575  0.97679429  0.07553999    -0.71530
O715        O  0.78831448  0.03612581  0.01847134    -0.71470
O716        O  0.78876403  0.91997525  0.01663479    -0.71660
V717        V  0.84982196  0.97831473  0.01901734     1.35240
V718        V  0.78878135  0.97803571  0.01753875     1.35170
C719        C  0.82142435  0.90261579  0.02471690     0.77770
C720        C  0.82112911  0.05381287  0.01193233     0.77830
C721        C  0.81973853  0.98402661  0.09375620     0.77700
C722        C  0.82313441  0.97215980  0.94282855     0.77660
C723        C  0.68881498  0.17325744  0.51866572     0.03440
C724        C  0.64837494  0.18349231  0.52337383    -0.12710
C725        C  0.61939171  0.15375820  0.52287228     0.00940
C726        C  0.63148196  0.11415504  0.51857843    -0.11230
C727        C  0.67126237  0.10259753  0.51554138     0.03430
C728        C  0.70027886  0.13257412  0.51575515    -0.10650
H729        H  0.63968140  0.21413800  0.52803881     0.09030
H730        H  0.60885200  0.09134584  0.51790502     0.06560
H731        H  0.73127624  0.12462009  0.51318551     0.06410
C732        C  0.81136929  0.29410682  0.51837142     0.03440
C733        C  0.85170971  0.28360299  0.51361596    -0.12710
C734        C  0.88076198  0.31326217  0.51195277     0.00940
C735        C  0.86871668  0.35314474  0.51339433    -0.11230
C736        C  0.82912831  0.36475912  0.51829478     0.03430
C737        C  0.80012045  0.33487342  0.52036196    -0.10650
H738        H  0.86032016  0.25274007  0.51053532     0.09030
H739        H  0.89113390  0.37609721  0.51119813     0.06560
H740        H  0.76926616  0.34299294  0.52393435     0.06410
O741        O  0.64853826  0.03717576  0.50734951    -0.71470
O742        O  0.64764578  0.92948056  0.53317514    -0.71680
O743        O  0.64849745  0.99605149  0.57405795    -0.71540
O744        O  0.64769955  0.97065056  0.46660142    -0.71550
O745        O  0.71047591  0.98289027  0.46215001    -0.71510
O746        O  0.71103665  0.98232888  0.57811364    -0.71530
O747        O  0.71023896  0.92471325  0.52024704    -0.71470
O748        O  0.71121127  0.04090511  0.52048393    -0.71660
V749        V  0.64945363  0.98334731  0.52027521     1.35240
V750        V  0.71052754  0.98278139  0.52017470     1.35170
C751        C  0.67848026  0.05865115  0.51353357     0.77770
C752        C  0.67740423  0.90753061  0.52794290     0.77830
C753        C  0.67839812  0.98966089  0.59562623     0.77700
C754        C  0.67761939  0.97544735  0.44484285     0.77660
O755        O  0.78769809  0.48286768  0.57395844    -0.71470
O756        O  0.79107369  0.48593096  0.45795121    -0.71680
O757        O  0.78933235  0.42646249  0.51432507    -0.71540
O758        O  0.78970991  0.54263144  0.51694090    -0.71550
O759        O  0.85286807  0.53840410  0.50701909    -0.71510
O760        O  0.85181891  0.42986912  0.52864250    -0.71530
O761        O  0.85380033  0.47369881  0.46365484    -0.71470
O762        O  0.85060318  0.49493591  0.57202762    -0.71660
V763        V  0.78973191  0.48450978  0.51589270     1.35240
V764        V  0.85085371  0.48424258  0.51784575     1.35170
C765        C  0.82005634  0.48901285  0.59264958     0.77770
C766        C  0.82429373  0.47921255  0.44129136     0.77830
C767        C  0.82199685  0.40860029  0.52126215     0.77700
C768        C  0.82277453  0.56009587  0.51100458     0.77660
C769        C  0.74826858  0.20452062  0.54828680    -0.05470
C770        C  0.71942253  0.20499765  0.51812898     0.00460
C771        C  0.72103274  0.23468680  0.48794319    -0.08110
C772        C  0.75164545  0.26308943  0.48936259    -0.05490
C773        C  0.78053936  0.26258835  0.51946124     0.00450
C774        C  0.77887985  0.23296746  0.54972085    -0.08020
C775        C  0.80865514  0.23137494  0.58377214     0.62360
H776        H  0.74660834  0.18140461  0.57082506     0.13050
H777        H  0.75336907  0.28612865  0.46675187     0.13060
C778        C  0.69128027  0.23624246  0.45385779     0.62590
F779        F  0.79601440  0.20640452  0.61410027    -0.22580
F780        F  0.81400758  0.26892238  0.59975587    -0.19900
F781        F  0.84454020  0.21707284  0.57023544    -0.19580
F782        F  0.65502311  0.24936833  0.46758014    -0.19630
F783        F  0.68690364  0.19888200  0.43716364    -0.19960
F784        F  0.70330830  0.26211503  0.42403344    -0.22630
C785        C  0.76765057  0.01647838  0.25900306    -0.05470
C786        C  0.77641520  0.98108562  0.23876890     0.00460
C787        C  0.75647656  0.94538372  0.24897923    -0.08110
C788        C  0.72781124  0.94643794  0.27925749    -0.05490
C789        C  0.71903427  0.98179497  0.29950856     0.00450
C790        C  0.73899813  0.01749650  0.28936888    -0.08020
C791        C  0.72957319  0.05642491  0.31014934     0.62360
H792        H  0.78350997  0.04331941  0.25073792     0.13050
H793        H  0.71203425  0.91956073  0.28757883     0.13060
C794        C  0.76600565  0.90632715  0.22842597     0.62590
F795        F  0.75071447  0.08801362  0.29419986    -0.22580
F796        F  0.73905429  0.05349850  0.35011446    -0.19900
F797        F  0.68961339  0.06481209  0.30624105    -0.19580
F798        F  0.80593841  0.89791895  0.23258578    -0.19630
F799        F  0.75672377  0.90906222  0.18840081    -0.19960
F800        F  0.74478556  0.87480255  0.24440083    -0.22630
C801        C  0.74758438  0.25833369  0.04484504    -0.05470
C802        C  0.71921643  0.25882102  0.01426257     0.00460
C803        C  0.72069045  0.22949935  0.98396367    -0.08110
C804        C  0.75062392  0.20038019  0.98582152    -0.05490
C805        C  0.77903955  0.19991276  0.01643312     0.00450
C806        C  0.77732214  0.22912249  0.04690109    -0.08020
C807        C  0.80597158  0.22979562  0.08196818     0.62360
H808        H  0.74602079  0.28109373  0.06759345     0.13050
H809        H  0.75212658  0.17760706  0.96308898     0.13060
C810        C  0.69117096  0.22828169  0.94972208     0.62590
F811        F  0.79058480  0.25113545  0.11357017    -0.22580
F812        F  0.84106312  0.24779290  0.07072724    -0.19900
F813        F  0.81360640  0.19158483  0.09551819    -0.19580
F814        F  0.68223343  0.26632247  0.93650386    -0.19630
F815        F  0.65683908  0.20948822  0.96200465    -0.19960
F816        F  0.70622317  0.20736935  0.91767867    -0.22630
C817        C  0.74657030  0.51129975  0.24094533    -0.05470
C818        C  0.71835671  0.48053839  0.24145885     0.00460
C819        C  0.72240396  0.44894033  0.26937220    -0.08110
C820        C  0.75461662  0.44962673  0.29608794    -0.05490
C821        C  0.78278842  0.48042580  0.29566248     0.00450
C822        C  0.77877047  0.51201470  0.26771886    -0.08020
C823        C  0.80764657  0.54678062  0.26644700     0.62360
H824        H  0.74314898  0.53486308  0.21907412     0.13050
H825        H  0.75802906  0.42603535  0.31793099     0.13060
C826        C  0.69348144  0.41420554  0.27071652     0.62590
F827        F  0.79435243  0.57702494  0.24164089    -0.22580
F828        F  0.84390501  0.53417087  0.25226475    -0.19900
F829        F  0.81247816  0.56253252  0.30414540    -0.19580
F830        F  0.68854404  0.39844918  0.23303311    -0.19630
F831        F  0.65726950  0.42686674  0.28497816    -0.19960
F832        F  0.70678486  0.38394564  0.29549639    -0.22630
C833        C  0.22148920  0.44810723  0.27121967    -0.05470
C834        C  0.22256721  0.47895486  0.29926801     0.00460
C835        C  0.25116401  0.50971154  0.29546687    -0.08110
C836        C  0.27798878  0.50818255  0.26354170    -0.05490
C837        C  0.27705658  0.47727546  0.23551232     0.00450
C838        C  0.24843255  0.44646093  0.23934940    -0.08020
C839        C  0.24646684  0.41154916  0.21066654     0.62360
H840        H  0.19902173  0.42526552  0.27447695     0.13050
H841        H  0.30028534  0.53118377  0.26023551     0.13060
C842        C  0.25308317  0.54442763  0.32437849     0.62590
F843        F  0.22179071  0.38164673  0.22460080    -0.22580
F844        F  0.28376650  0.39530901  0.20552424    -0.19900
F845        F  0.23178373  0.42410333  0.17429993    -0.19580
F846        F  0.26586058  0.53124791  0.36125086    -0.19630
F847        F  0.21606784  0.56169724  0.32809425    -0.19960
F848        F  0.27918132  0.57363623  0.31165125    -0.22630
C849        C  0.96461601  0.21558002  0.25780367    -0.05470
C850        C  0.00015100  0.20313245  0.24024809     0.00460
C851        C  0.03667226  0.21962567  0.25269512    -0.08110
C852        C  0.03638075  0.24857743  0.28276941    -0.05490
C853        C  0.00086868  0.26099790  0.30036756     0.00450
C854        C  0.96433891  0.24458239  0.28787213    -0.08020
C855        C  0.92548078  0.25798968  0.30607868     0.62360
H856        H  0.93710719  0.20232600  0.24769265     0.13050
H857        H  0.06389509  0.26182545  0.29287898     0.13060
C858        C  0.07557733  0.20642293  0.23438473     0.62590
F859        F  0.89328718  0.23893641  0.28899190    -0.22580
F860        F  0.92082842  0.29857749  0.30052008    -0.19900
F861        F  0.92544545  0.24961037  0.34641564    -0.19580
F862        F  0.07547098  0.21478348  0.19404256    -0.19630
F863        F  0.08051206  0.16587326  0.23995784    -0.19960
F864        F  0.10771251  0.22567685  0.25135699    -0.22630
C865        C  0.25372531  0.01512710  0.29914796    -0.05470
C866        C  0.27902173  0.98201949  0.30133238     0.00460
C867        C  0.27282485  0.94929859  0.27543724    -0.08110
C868        C  0.24160316  0.95132511  0.24758911    -0.05490
C869        C  0.21643658  0.98453197  0.24529037     0.00450
C870        C  0.22245437  0.01710637  0.27139283    -0.08020
C871        C  0.19664025  0.05416599  0.26942687     0.62360
H872        H  0.25884883  0.03959616  0.31946874     0.13050
H873        H  0.23655679  0.92693026  0.22716097     0.13060
C874        C  0.29837145  0.91206689  0.27769685     0.62590
F875        F  0.21051950  0.08389242  0.29431960    -0.22580
F876        F  0.15843140  0.04498292  0.28096173    -0.19900
F877        F  0.19607267  0.06909651  0.23098805    -0.19580
F878        F  0.29932585  0.89779273  0.31637742    -0.19630
F879        F  0.33649894  0.92067846  0.26549441    -0.19960
F880        F  0.28388451  0.88204175  0.25352052    -0.22630
C881        C  0.25419002  0.26463456  0.04704398    -0.05470
C882        C  0.28063219  0.26376924  0.01494321     0.00460
C883        C  0.27522525  0.23563836  0.98401687    -0.08110
C884        C  0.24332896  0.20885360  0.98671031    -0.05490
C885        C  0.21699262  0.20954285  0.01894483     0.00450
C886        C  0.22235430  0.23780259  0.04981482    -0.08020
C887        C  0.19535012  0.23927914  0.08596943     0.62360
H888        H  0.25876769  0.28676011  0.07001055     0.13050
H889        H  0.23881644  0.18671854  0.96374315     0.13060
C890        C  0.30243977  0.23415788  0.94804337     0.62590
F891        F  0.20965997  0.26498695  0.11478536    -0.22580
F892        F  0.19222133  0.20181391  0.10297503    -0.19900
F893        F  0.15815315  0.25250964  0.07485300    -0.19580
F894        F  0.33960940  0.22104988  0.95940531    -0.19630
F895        F  0.30559731  0.27162547  0.93104935    -0.19960
F896        F  0.28833888  0.20838735  0.91918481    -0.22630
C897        C  0.24795768  0.25849763  0.54637018    -0.05470
C898        C  0.21770561  0.25644530  0.51765900     0.00460
C899        C  0.21920875  0.22642610  0.48801831    -0.08110
C900        C  0.25109079  0.19934892  0.48866195    -0.05490
C901        C  0.28137452  0.20159753  0.51735176     0.00450
C902        C  0.27983523  0.23162933  0.54694942    -0.08020
C903        C  0.31095549  0.23529463  0.57964312     0.62360
H904        H  0.24634317  0.28169300  0.56865504     0.13050
H905        H  0.25247829  0.17577752  0.46675172     0.13060
C906        C  0.18776443  0.22231468  0.45580880     0.62590
F907        F  0.29869580  0.26054142  0.60970887    -0.22580
F908        F  0.34560860  0.25070968  0.56410052    -0.19900
F909        F  0.31847497  0.19845349  0.59663360    -0.19580
F910        F  0.17681213  0.25929278  0.44118080    -0.19630
F911        F  0.15490868  0.20313187  0.47115656    -0.19960
F912        F  0.20149599  0.20006901  0.42406390    -0.22630
C913        C  0.53891969  0.21636143  0.28556185    -0.05470
C914        C  0.50285542  0.20077576  0.29922456     0.00460
C915        C  0.46662185  0.21523342  0.28363183    -0.08110
C916        C  0.46771105  0.24522439  0.25433330    -0.05490
C917        C  0.50376130  0.26084942  0.24069742     0.00450
C918        C  0.54000174  0.24641445  0.25629953    -0.08020
C919        C  0.57940953  0.26272417  0.24190434     0.62360
H920        H  0.56620662  0.20477767  0.29812457     0.13050
H921        H  0.44041526  0.25684391  0.24182026     0.13060
C922        C  0.42718907  0.19904988  0.29812716     0.62590
F923        F  0.61114247  0.24423260  0.26053619    -0.22580
F924        F  0.58160737  0.30308409  0.24974732    -0.19900
F925        F  0.58289041  0.25676264  0.20134245    -0.19580
F926        F  0.42365652  0.20535373  0.33863200    -0.19630
F927        F  0.42500170  0.15862322  0.29062249    -0.19960
F928        F  0.39547067  0.21738486  0.27931511    -0.22630
C929        C  0.27868381  0.73180537  0.54516744    -0.05470
C930        C  0.27899013  0.75954858  0.51382103     0.00460
C931        C  0.25089563  0.75600871  0.48250345    -0.08110
C932        C  0.22304380  0.72479356  0.48415561    -0.05490
C933        C  0.22260315  0.69717111  0.51564392     0.00450
C934        C  0.25084868  0.70063313  0.54686662    -0.08020
C935        C  0.25133650  0.67235171  0.58237390     0.62360
H936        H  0.30063569  0.73490817  0.56855464     0.13050
H937        H  0.20102518  0.72177386  0.46082333     0.13060
C938        C  0.25043792  0.78442498  0.44714657     0.62590
F939        F  0.27629263  0.68572283  0.61227549    -0.22580
F940        F  0.26460376  0.63524401  0.57078052    -0.19900
F941        F  0.21369563  0.66887699  0.59822457    -0.19580
F942        F  0.28821734  0.78850654  0.43177584    -0.19630
F943        F  0.23654192  0.82128820  0.45876488    -0.19960
F944        F  0.22602127  0.77080171  0.41691546    -0.22630
C945        C  0.96280768  0.75051975  0.25588301    -0.05470
C946        C  0.99927409  0.76144865  0.23919813     0.00460
C947        C  0.03462964  0.74251230  0.25179506    -0.08110
C948        C  0.03219512  0.71254574  0.28092657    -0.05490
C949        C  0.99576330  0.70155076  0.29753716     0.00450
C950        C  0.96042626  0.72057470  0.28512859    -0.08020
C951        C  0.92061550  0.70899767  0.30262457     0.62360
H952        H  0.93626552  0.76564211  0.24570797     0.13050
H953        H  0.05874732  0.69748820  0.29118474     0.13060
C954        C  0.07465831  0.75439058  0.23491426     0.62590
F955        F  0.88981794  0.73039340  0.28558690    -0.22580
F956        F  0.92055824  0.71625580  0.34312080    -0.19900
F957        F  0.91364751  0.66892042  0.29617353    -0.19580
F958        F  0.08100368  0.79464055  0.24094616    -0.19630
F959        F  0.07568695  0.74654154  0.19455847    -0.19960
F960        F  0.10540848  0.73367325  0.25286355    -0.22630
C961        C  0.22245937  0.74119774  0.04784266    -0.05470
C962        C  0.22082604  0.76788443  0.01568770     0.00460
C963        C  0.24696460  0.76306192  0.98310484    -0.08110
C964        C  0.27415475  0.73127456  0.98406213    -0.05490
C965        C  0.27571313  0.70446687  0.01621969     0.00450
C966        C  0.24967592  0.70954482  0.04893975    -0.08020
C967        C  0.25096279  0.68244784  0.08533517     0.62360
H968        H  0.20190143  0.74539150  0.07219687     0.13050
H969        H  0.29466863  0.72709617  0.95967686     0.13060
C970        C  0.24575463  0.79076302  0.94723258     0.62590
F971        F  0.22772755  0.69692893  0.11596579    -0.22580
F972        F  0.28940765  0.67930397  0.09940013    -0.19900
F973        F  0.23693127  0.64504377  0.07563344    -0.19580
F974        F  0.25804389  0.82846561  0.95809908    -0.19630
F975        F  0.20759091  0.79279565  0.93222221    -0.19960
F976        F  0.27037960  0.77774250  0.91704780    -0.22630
C977        C  0.46125069  0.70796776  0.26207198    -0.05470
C978        C  0.49543907  0.70238689  0.23910067     0.00460
C979        C  0.52982746  0.72533672  0.24681202    -0.08110
C980        C  0.52855309  0.75378875  0.27736464    -0.05490
C981        C  0.49434516  0.75944823  0.30023506     0.00450
C982        C  0.46002695  0.73641300  0.29267157    -0.08020
C983        C  0.42222999  0.74239622  0.31633433     0.62360
H984        H  0.43545299  0.68983672  0.25567542     0.13050
H985        H  0.55433393  0.77194710  0.28376597     0.13060
C986        C  0.56785402  0.71923638  0.22348900     0.62590
F987        F  0.39156496  0.71887221  0.30225332    -0.22580
F988        F  0.41043651  0.78179511  0.31378964    -0.19900
F989        F  0.42866681  0.73253471  0.35581207    -0.19580
F990        F  0.56213443  0.72999320  0.18413981    -0.19630
F991        F  0.57907455  0.67963537  0.22541361    -0.19960
F992        F  0.59869024  0.74200219  0.23842083    -0.22630
C993        C  0.24480639  0.51316988  0.73838087    -0.05470
C994        C  0.21542234  0.48360354  0.74059396     0.00460
C995        C  0.21839833  0.45323986  0.76998109    -0.08110
C996        C  0.25073291  0.45404101  0.79644530    -0.05490
C997        C  0.28006480  0.48361542  0.79425814     0.00450
C998        C  0.27726759  0.51382257  0.76473147    -0.08020
C999        C  0.30784528  0.54692414  0.76108275     0.62360
H1000       H  0.24219815  0.53573454  0.71537322     0.13050
H1001       H  0.25331778  0.43153063  0.81951313     0.13060
C1002       C  0.18826380  0.41967523  0.77333240     0.62590
F1003       F  0.29547842  0.57660154  0.73513239    -0.22580
F1004       F  0.34299621  0.53170685  0.74664413    -0.19900
F1005       F  0.31450897  0.56423179  0.79780264    -0.19580
F1006       F  0.18137887  0.40296787  0.73637044    -0.19630
F1007       F  0.15310803  0.43410976  0.78853188    -0.19960
F1008       F  0.20133667  0.38965095  0.79852092    -0.22630
C1009       C  0.25188026  0.95417906  0.80415782    -0.05470
C1010       C  0.22206656  0.98324756  0.80185853     0.00460
C1011       C  0.22307740  0.01196268  0.77065083    -0.08110
C1012       C  0.25373129  0.00987031  0.74248727    -0.05490
C1013       C  0.28343358  0.98070979  0.74461767     0.00450
C1014       C  0.28264564  0.95217896  0.77599331    -0.08020
C1015       C  0.31356428  0.91944294  0.78007589     0.62360
H1016       H  0.25083641  0.93286062  0.82843474     0.13050
H1017       H  0.25478668  0.03124955  0.71826021     0.13060
C1018       C  0.19261245  0.04522606  0.76690577     0.62590
F1019       F  0.30083298  0.88932980  0.80527849    -0.22580
F1020       F  0.34812073  0.93497422  0.79581285    -0.19900
F1021       F  0.32139521  0.90250449  0.74345567    -0.19580
F1022       F  0.18575934  0.06246917  0.80358657    -0.19630
F1023       F  0.15749987  0.03028578  0.75185964    -0.19960
F1024       F  0.20536001  0.07502159  0.74133627    -0.22630
C1025       C  0.96220983  0.21572439  0.78559868    -0.05470
C1026       C  0.99916769  0.20202107  0.79897458     0.00460
C1027       C  0.03444783  0.21831123  0.78304466    -0.08110
C1028       C  0.03151666  0.24813822  0.75370904    -0.05490
C1029       C  0.99458894  0.26177118  0.74024952     0.00450
C1030       C  0.95929836  0.24559095  0.75623844    -0.08020
C1031       C  0.91895679  0.26011177  0.74236347     0.62360
H1032       H  0.93570240  0.20282629  0.79843218     0.13050
H1033       H  0.05802900  0.26110949  0.74095201     0.13060
C1034       C  0.07486632  0.20422223  0.79720249     0.62590
F1035       F  0.88841294  0.24097382  0.76216273    -0.22580
F1036       F  0.91455656  0.25302440  0.70206123    -0.19900
F1037       F  0.91558535  0.30056704  0.74928368    -0.19580
F1038       F  0.07900690  0.16394950  0.78973099    -0.19630
F1039       F  0.07866814  0.21079386  0.83765772    -0.19960
F1040       F  0.10534948  0.22413412  0.77807509    -0.22630
C1041       C  0.46652713  0.21262969  0.75923648    -0.05470
C1042       C  0.50206322  0.20392877  0.73956004     0.00460
C1043       C  0.53733590  0.22417062  0.74996290    -0.08110
C1044       C  0.53579340  0.25300696  0.78010692    -0.05490
C1045       C  0.50030461  0.26168510  0.79987592     0.00450
C1046       C  0.46497885  0.24151371  0.78941169    -0.08020
C1047       C  0.42591348  0.25099974  0.80957420     0.62360
H1048       H  0.44001266  0.19654611  0.75068134     0.13050
H1049       H  0.56234516  0.26904798  0.78863834     0.13060
C1050       C  0.57633436  0.21495645  0.72952070     0.62590
F1051       F  0.39477307  0.22968647  0.79320832    -0.22580
F1052       F  0.41759146  0.29115684  0.80541544    -0.19900
F1053       F  0.42817607  0.24154780  0.84960380    -0.19580
F1054       F  0.57338634  0.22359163  0.68934176    -0.19630
F1055       F  0.58539380  0.17503292  0.73433029    -0.19960
F1056       F  0.60731093  0.23710249  0.74507374    -0.22630
C1057       C  0.96783996  0.76167710  0.77070292    -0.05470
C1058       C  0.99759361  0.75976037  0.79991111     0.00460
C1059       C  0.02691147  0.72944831  0.79785322    -0.08110
C1060       C  0.02494909  0.70190134  0.76651821    -0.05490
C1061       C  0.99525086  0.70385477  0.73731724     0.00450
C1062       C  0.96598137  0.73416212  0.73928628    -0.08020
C1063       C  0.93250715  0.73738454  0.70901556     0.62360
H1064       H  0.94599067  0.78522479  0.77269868     0.13050
H1065       H  0.04671989  0.67827075  0.76456038     0.13060
C1066       C  0.06060932  0.72610413  0.82789693     0.62590
F1067       F  0.90354743  0.76387651  0.72118042    -0.22580
F1068       F  0.91470681  0.70064825  0.70372781    -0.19900
F1069       F  0.94708587  0.75088748  0.67301864    -0.19580
F1070       F  0.04650316  0.71117323  0.86352941    -0.19630
F1071       F  0.07773625  0.76300092  0.83420081    -0.19960
F1072       F  0.09006446  0.70062979  0.81481116    -0.22630
C1073       C  0.75644995  0.01180225  0.79712676    -0.05470
C1074       C  0.78330901  0.97991535  0.79701713     0.00460
C1075       C  0.77917104  0.94916879  0.76843889    -0.08110
C1076       C  0.74806187  0.95173845  0.74061486    -0.05490
C1077       C  0.72112919  0.98355261  0.74080327     0.00450
C1078       C  0.72530644  0.01434410  0.76932898    -0.08020
C1079       C  0.69765619  0.05009812  0.77012671     0.62360
H1080       H  0.76006938  0.03472507  0.81947098     0.13050
H1081       H  0.74438327  0.92876691  0.71833064     0.13060
C1082       C  0.80673218  0.91334122  0.76772179     0.62590
F1083       F  0.71095986  0.07916356  0.79609010    -0.22580
F1084       F  0.66036809  0.03846493  0.78245617    -0.19900
F1085       F  0.69502439  0.06698476  0.73258313    -0.19580
F1086       F  0.80899016  0.89627445  0.80520971    -0.19630
F1087       F  0.84415417  0.92494218  0.75577507    -0.19960
F1088       F  0.79359206  0.88442537  0.74151072    -0.22630
C1089       C  0.75072086  0.75965267  0.99559321    -0.05470
C1090       C  0.78062968  0.75636891  0.02459722     0.00460
C1091       C  0.77831535  0.72531771  0.05340865    -0.08110
C1092       C  0.74598988  0.69881235  0.05181164    -0.05490
C1093       C  0.71602676  0.70219955  0.02286824     0.00450
C1094       C  0.71841839  0.73317793  0.99398824    -0.08020
C1095       C  0.68762191  0.73868213  0.96123288     0.62360
H1096       H  0.75277059  0.78370081  0.97407137     0.13050
H1097       H  0.74394704  0.67473116  0.07329082     0.13060
C1098       C  0.80925150  0.71966236  0.08596962     0.62590
F1099       F  0.70125035  0.76362247  0.93131348    -0.22580
F1100       F  0.65377023  0.75568115  0.97678143    -0.19900
F1101       F  0.67830252  0.70249216  0.94401447    -0.19580
F1102       F  0.81910661  0.75582130  0.10295023    -0.19630
F1103       F  0.84278296  0.70219523  0.07023896    -0.19960
F1104       F  0.79552585  0.69502703  0.11609358    -0.22630
C1105       C  0.74820872  0.45285764  0.73864778    -0.05470
C1106       C  0.77672714  0.48328807  0.73870640     0.00460
C1107       C  0.77556363  0.51295495  0.76872697    -0.08110
C1108       C  0.74611949  0.51043984  0.79814862    -0.05490
C1109       C  0.71781337  0.47982293  0.79836689     0.00450
C1110       C  0.71893462  0.45017691  0.76832226    -0.08020
C1111       C  0.68963286  0.41583314  0.76659744     0.62360
H1112       H  0.74923695  0.43076276  0.71521917     0.13050
H1113       H  0.74467908  0.53283213  0.82125378     0.13060
C1114       C  0.80439496  0.54782694  0.76949291     0.62590
F1115       F  0.70604867  0.38327771  0.74754422    -0.22580
F1116       F  0.65630600  0.42756004  0.74558928    -0.19900
F1117       F  0.67867833  0.40352701  0.80434710    -0.19580
F1118       F  0.80809310  0.56423290  0.73184249    -0.19630
F1119       F  0.84110285  0.53519440  0.78275835    -0.19960
F1120       F  0.79164788  0.57766913  0.79477503    -0.22630
C1121       C  0.75794375  0.70781979  0.55265380    -0.05470
C1122       C  0.78148942  0.70577295  0.51837997     0.00460
C1123       C  0.77406330  0.73214482  0.48613391    -0.08110
C1124       C  0.74311261  0.76003563  0.48954373    -0.05490
C1125       C  0.71948385  0.76203150  0.52377942     0.00450
C1126       C  0.72704604  0.73577265  0.55611138    -0.08020
C1127       C  0.70328303  0.73779024  0.59441876     0.62360
H1128       H  0.76405242  0.68717367  0.57676765     0.13050
H1129       H  0.73698824  0.78063406  0.46539346     0.13060
C1130       C  0.79811392  0.73031894  0.44799990     0.62590
F1131       F  0.71868801  0.71290762  0.62356724    -0.22580
F1132       F  0.66458797  0.72627888  0.58737150    -0.19900
F1133       F  0.70367259  0.77627868  0.60900580    -0.19580
F1134       F  0.79734401  0.69203279  0.43290841    -0.19630
F1135       F  0.83690370  0.74118907  0.45556539    -0.19960
F1136       F  0.78330969  0.75580020  0.41905471    -0.22630
C1137       C  0.46161169  0.74624173  0.75150982    -0.05470
C1138       C  0.49803966  0.76285763  0.74036162     0.00460
C1139       C  0.53362503  0.74923991  0.75807146    -0.08110
C1140       C  0.53148267  0.71905526  0.78707151    -0.05490
C1141       C  0.49503951  0.70242948  0.79820808     0.00450
C1142       C  0.45945826  0.71601345  0.78042929    -0.08020
C1143       C  0.41955821  0.69883099  0.79231757     0.62360
H1144       H  0.43488262  0.75721553  0.73728134     0.13050
H1145       H  0.55821329  0.70808250  0.80129474     0.13060
C1146       C  0.57347137  0.76637727  0.74601613     0.62590
F1147       F  0.38858418  0.71727570  0.77238384    -0.22580
F1148       F  0.41379242  0.70386099  0.83274373    -0.19900
F1149       F  0.41834910  0.65864151  0.78350551    -0.19580
F1150       F  0.57452518  0.80668310  0.75432154    -0.19630
F1151       F  0.57926603  0.76086986  0.70565700    -0.19960
F1152       F  0.60447350  0.74825588  0.76620104    -0.22630
loop_ 
_geom_bond_atom_site_label_1 
_geom_bond_atom_site_label_2 
_geom_bond_distance 
_geom_bond_site_symmetry_2 
_ccdc_geom_bond_type 
C1            C2   1.416       .  A
C1            C6   1.415       .  A
C1         C1138   1.470       .  S
C2            C3   1.399       .  A
C2            H7   1.083       .  S
C3            C4   1.402       .  A
C3          C139   1.492       .  S
C4            C5   1.401       .  A
C4            H8   1.081       .  S
C5            C6   1.398       .  A
C5          C361   1.490       .  S
C6            H9   1.083       .  S
C10          C11   1.416       .  A
C10          C15   1.416       .  A
C10        C1141   1.470       .  S
C11          C12   1.398       .  A
C11          H16   1.083       .  S
C12          C13   1.403       .  A
C12         C234   1.492       .  S
C13          C14   1.403       .  A
C13          H17   1.081       .  S
C14          C15   1.398       .  A
C14         C268   1.492       .  S
C15          H18   1.083       .  S
C19          C20   1.419       .  A
C19          C24   1.421       .  A
C19        C1122   1.482       .  S
C20          C21   1.401       .  A
C20          H25   1.083       .  S
C21          C22   1.399       .  A
C21         C349   1.493       .  S
C22          C23   1.402       .  A
C22          H26   1.082       .  S
C23          C24   1.402       .  A
C23         C768   1.497       .  S
C24          H27   1.083       .  S
C28          C29   1.419       .  A
C28          C33   1.420       .  A
C28        C1125   1.483       .  S
C29          C30   1.401       .  A
C29          H34   1.083       .  S
C30          C31   1.402       .  A
C30         C364   1.496       .  S
C31          C32   1.402       .  A
C31          H35   1.080       .  S
C32          C33   1.402       .  A
C32         C752   1.497       .  S
C33          H36   1.083       .  S
C37          C38   1.416       .  A
C37          C42   1.425       .  A
C37        C1106   1.484       .  S
C38          C39   1.395       .  A
C38          H43   1.082       .  S
C39          C40   1.397       .  A
C39         C221   1.487       .  S
C40          C41   1.401       .  A
C40          H44   1.081       .  S
C41          C42   1.406       .  A
C41         C765   1.500       .  S
C42          H45   1.083       .  S
C46          C47   1.423       .  A
C46          C51   1.417       .  A
C46        C1109   1.484       .  S
C47          C48   1.404       .  A
C47          H52   1.083       .  S
C48          C49   1.402       .  A
C48         C669   1.498       .  S
C49          C50   1.398       .  A
C49          H53   1.081       .  S
C50          C51   1.398       .  A
C50         C236   1.490       .  S
C51          H54   1.081       .  S
C55          C56   1.425       .  A
C55          C60   1.422       .  A
C55        C1090   1.491       .  S
C56          C57   1.401       .  A
C56          H61   1.083       .  S
C57          C58   1.397       .  A
C57         C719   1.495       .  S
C58          C59   1.399       .  A
C58          H62   1.081       .  S
C59          C60   1.401       .  A
C59         C316   1.495       .  S
C60          H63   1.080       .  S
C64          C65   1.423       .  A
C64          C69   1.419       .  A
C64        C1093   1.491       .  S
C65          C66   1.402       .  A
C65          H70   1.083       .  S
C66          C67   1.399       .  A
C66         C671   1.495       .  S
C67          C68   1.399       .  A
C67          H71   1.082       .  S
C68          C69   1.401       .  A
C68         C266   1.491       .  S
C69          H72   1.080       .  S
C73          C74   1.420       .  A
C73          C78   1.417       .  A
C73        C1074   1.480       .  S
C74          C75   1.401       .  A
C74          H79   1.083       .  S
C75          C76   1.402       .  A
C75         C722   1.495       .  S
C76          C77   1.402       .  A
C76          H80   1.081       .  S
C77          C78   1.398       .  A
C77         C188   1.491       .  S
C78          H81   1.082       .  S
C82          C83   1.417       .  A
C82          C87   1.420       .  A
C82        C1077   1.480       .  S
C83          C84   1.398       .  A
C83          H88   1.082       .  S
C84          C85   1.399       .  A
C84         C138   1.488       .  S
C85          C86   1.400       .  A
C85          H89   1.081       .  S
C86          C87   1.401       .  A
C86         C753   1.493       .  S
C87          H90   1.083       .  S
C91          C92   1.423       .  A
C91          C96   1.417       .  A
C91        C1058   1.483       .  S
C92          C93   1.402   1_655  A
C92          H97   1.083       .  S
C93          C94   1.397       .  A
C93         C190   1.491       .  S
C94          C95   1.396   1_455  A
C94          H98   1.083       .  S
C95          C96   1.396       .  A
C95         C317   1.483       .  S
C96          H99   1.081       .  S
C100        C101   1.422       .  A
C100        C105   1.416       .  A
C100       C1061   1.481       .  S
C101        C102   1.401       .  A
C101        H106   1.083       .  S
C102        C103   1.399       .  A
C102        C220   1.494       .  S
C103        C104   1.399       .  A
C103        H107   1.081       .  S
C104        C105   1.397       .  A
C104        C347   1.488   1_655  S
C105        H108   1.081   1_655  S
C109        C110   1.417       .  A
C109        C114   1.416       .  A
C109       C1042   1.473       .  S
C110        C111   1.400       .  A
C110        H115   1.083       .  S
C111        C112   1.400       .  A
C111        C624   1.492       .  S
C112        C113   1.401       .  A
C112        H116   1.081       .  S
C113        C114   1.398       .  A
C113        C140   1.490       .  S
C114        H117   1.083       .  S
C118        C119   1.417       .  A
C118        C123   1.417       .  A
C118       C1045   1.474       .  S
C119        C120   1.399       .  A
C119        H124   1.083       .  S
C120        C121   1.400       .  A
C120        C409   1.492       .  S
C121        C122   1.402       .  A
C121        H125   1.081       .  S
C122        C123   1.399       .  A
C122        C233   1.493       .  S
C123        H126   1.083       .  S
O127        V135   1.858       .  S
O127        C137   1.259       .  A
O128        V135   1.857       .  S
O128        C138   1.258       .  A
O129        V135   1.853       .  S
O129        C139   1.257       .  A
O130        V135   1.854   1_545  S
O130        C140   1.257       .  A
O131        V136   1.946   1_545  S
O131        C140   1.275       .  A
O132        V136   1.947       .  S
O132        C139   1.275       .  A
O133        V136   1.942       .  S
O133        C138   1.274       .  A
O134        V136   1.940       .  S
O134        C137   1.273       .  A
V135        V136   2.060       .  T
C137        C170   1.489       .  S
C141        C142   1.417   1_455  A
C141        C146   1.418       .  A
C141       C1026   1.474   1_455  S
C142        C143   1.399   1_655  A
C142        H147   1.083       .  S
C143        C144   1.400       .  A
C143        C552   1.491   1_455  S
C144        C145   1.400       .  A
C144        H148   1.081       .  S
C145        C146   1.401       .  A
C145        C189   1.494       .  S
C146        H149   1.083       .  S
C150        C151   1.417       .  A
C150        C155   1.416       .  A
C150       C1029   1.474       .  S
C151        C152   1.400       .  A
C151        H156   1.083       .  S
C152        C153   1.401       .  A
C152        C219   1.492   1_655  S
C153        C154   1.402       .  A
C153        H157   1.081       .  S
C154        C155   1.400       .  A
C154        C440   1.492       .  S
C155        H158   1.083       .  S
C159        C160   1.425       .  A
C159        C164   1.417       .  A
C159       C1010   1.486       .  S
C160        C161   1.405       .  A
C160        H165   1.083       .  S
C161        C162   1.400       .  A
C161        C537   1.499       .  S
C162        C163   1.398       .  A
C162        H166   1.082       .  S
C163        C164   1.396       .  A
C163        C187   1.487       .  S
C164        H167   1.081       .  S
C168        C169   1.417       .  A
C168        C173   1.424       .  A
C168       C1013   1.486       .  S
C169        C170   1.398       .  A
C169        H174   1.080       .  S
C170        C171   1.398       .  A
C171        C172   1.399       .  A
C171        H175   1.081       .  S
C172        C173   1.403       .  A
C172        C456   1.496       .  S
C173        H176   1.083       .  S
O177        V185   1.943       .  S
O177        C187   1.274       .  A
O178        V185   1.946   1_655  S
O178        C188   1.275       .  A
O179        V185   1.945   1_545  S
O179        C189   1.274       .  A
O180        V185   1.945       .  S
O180        C190   1.273       .  A
O181        V186   1.855   1_655  S
O181        C190   1.259   1_655  A
O182        V186   1.855   1_545  S
O182        C189   1.258       .  A
O183        V186   1.856   1_655  S
O183        C188   1.257       .  A
O184        V186   1.855       .  S
O184        C187   1.257       .  A
V185        V186   2.067       .  T
C191        C192   1.420       .  A
C191        C196   1.419       .  A
C191        C994   1.483       .  S
C192        C193   1.399       .  A
C192        H197   1.083       .  S
C193        C194   1.400       .  A
C193        C609   1.492       .  S
C194        C195   1.401       .  A
C194        H198   1.082       .  S
C195        C196   1.400       .  A
C195        C222   1.491       .  S
C196        H199   1.081       .  S
C200        C201   1.420       .  A
C200        C205   1.419       .  A
C200        C997   1.482       .  S
C201        C202   1.398       .  A
C201        H206   1.083       .  S
C202        C203   1.398       .  A
C202        C595   1.489       .  S
C203        C204   1.399       .  A
C203        H207   1.081       .  S
C204        C205   1.401       .  A
C204        C235   1.491       .  S
C205        H208   1.081       .  S
O209        V217   1.946       .  S
O209        C219   1.274   1_655  A
O210        V217   1.946       .  S
O210        C220   1.275       .  A
O211        V217   1.942       .  S
O211        C221   1.274       .  A
O212        V217   1.946   1_455  S
O212        C222   1.275       .  A
O213        V218   1.856   1_455  S
O213        C222   1.258       .  A
O214        V218   1.855       .  S
O214        C221   1.257       .  A
O215        V218   1.859       .  S
O215        C220   1.259       .  A
O216        V218   1.858   1_455  S
O216        C219   1.259       .  A
V217        V218   2.059       .  T
O223        V231   1.851       .  S
O223        C233   1.256       .  A
O224        V231   1.855       .  S
O224        C234   1.257       .  A
O225        V231   1.859       .  S
O225        C235   1.259       .  A
O226        V231   1.859       .  S
O226        C236   1.259       .  A
O227        V232   1.940       .  S
O227        C236   1.273       .  A
O228        V232   1.942       .  S
O228        C235   1.273       .  A
O229        V232   1.947       .  S
O229        C234   1.275       .  A
O230        V232   1.949       .  S
O230        C233   1.276       .  A
V231        V232   2.061       .  T
C237        C238   1.418       .  A
C237        C242   1.417       .  A
C237        C978   1.476       .  S
C238        C239   1.400       .  A
C238        H243   1.083       .  S
C239        C240   1.399       .  A
C239        C637   1.492       .  S
C240        C241   1.400       .  A
C240        H244   1.081       .  S
C241        C242   1.398       .  A
C241        C267   1.490       .  S
C242        H245   1.083       .  S
C246        C247   1.418       .  A
C246        C251   1.418       .  A
C246        C981   1.475       .  S
C247        C248   1.400       .  A
C247        H252   1.083       .  S
C248        C249   1.401       .  A
C248        C362   1.492       .  S
C249        C250   1.399       .  A
C249        H253   1.081       .  S
C250        C251   1.399       .  A
C250        C396   1.491       .  S
C251        H254   1.083       .  S
O255        V263   1.856       .  S
O255        C265   1.259       .  A
O256        V263   1.859       .  S
O256        C266   1.259       .  A
O257        V263   1.851       .  S
O257        C267   1.257       .  A
O258        V263   1.853   1_556  S
O258        C268   1.256       .  A
O259        V264   1.948   1_556  S
O259        C268   1.276       .  A
O260        V264   1.946       .  S
O260        C267   1.275       .  A
O261        V264   1.944       .  S
O261        C266   1.274       .  A
O262        V264   1.944       .  S
O262        C265   1.273       .  A
V263        V264   2.062       .  T
C265        C280   1.491       .  S
C269        C270   1.418       .  A
C269        C274   1.418       .  A
C269        C962   1.479       .  S
C270        C271   1.398       .  A
C270        H275   1.083       .  S
C271        C272   1.400       .  A
C271        C315   1.491       .  S
C272        C273   1.402       .  A
C272        H276   1.081       .  S
C273        C274   1.401       .  A
C273        C535   1.493       .  S
C274        H277   1.082       .  S
C278        C279   1.421       .  A
C278        C283   1.419       .  A
C278        C965   1.482       .  S
C279        C280   1.400       .  A
C279        H284   1.083       .  S
C280        C281   1.396       .  A
C281        C282   1.399       .  A
C281        H285   1.081       .  S
C282        C283   1.400       .  A
C282        C597   1.492       .  S
C283        H286   1.082       .  S
C287        C288   1.416       .  A
C287        C292   1.415   1_655  A
C287        C946   1.470       .  S
C288        C289   1.399       .  A
C288        H293   1.083       .  S
C289        C290   1.402   1_655  A
C289        C523   1.489       .  S
C290        C291   1.400       .  A
C290        H294   1.081       .  S
C291        C292   1.398       .  A
C291        C318   1.489       .  S
C292        H295   1.083       .  S
C296        C297   1.416       .  A
C296        C301   1.415       .  A
C296        C949   1.469       .  S
C297        C298   1.399       .  A
C297        H302   1.083       .  S
C298        C299   1.401   1_655  A
C298        C581   1.489       .  S
C299        C300   1.399       .  A
C299        H303   1.082       .  S
C300        C301   1.397   1_455  A
C300        C348   1.487   1_455  S
C301        H304   1.083       .  S
O305        V313   1.946       .  S
O305        C315   1.275       .  A
O306        V313   1.949   1_655  S
O306        C316   1.275       .  A
O307        V313   1.939   1_556  S
O307        C317   1.272   1_455  A
O308        V313   1.942   1_655  S
O308        C318   1.274   1_655  A
O309        V314   1.856   1_455  S
O309        C318   1.258       .  A
O310        V314   1.854   1_556  S
O310        C317   1.258       .  A
O311        V314   1.851       .  S
O311        C316   1.258       .  A
O312        V314   1.857   1_455  S
O312        C315   1.258       .  A
V313        V314   2.065   1_455  T
C319        C320   1.422       .  A
C319        C324   1.418       .  A
C319        C933   1.485       .  S
C320        C321   1.403       .  A
C320        H325   1.083       .  S
C321        C322   1.400       .  A
C321        C350   1.495       .  S
C322        C323   1.398       .  A
C322        H326   1.082       .  S
C323        C324   1.399       .  A
C323        C612   1.490       .  S
C324        H327   1.082       .  S
C328        C329   1.420       .  A
C328        C333   1.423       .  A
C328        C930   1.485       .  S
C329        C330   1.400       .  A
C329        H334   1.081       .  S
C330        C331   1.399       .  A
C330        C453   1.492       .  S
C331        C332   1.398       .  A
C331        H335   1.082       .  S
C332        C333   1.402       .  A
C332        C363   1.494       .  S
C333        H336   1.083       .  S
O337        V345   1.943   1_655  S
O337        C347   1.274   1_655  A
O338        V345   1.943       .  S
O338        C348   1.274   1_455  A
O339        V345   1.946   1_655  S
O339        C349   1.274       .  A
O340        V345   1.948       .  S
O340        C350   1.275       .  A
O341        V346   1.856       .  S
O341        C350   1.258       .  A
O342        V346   1.859   1_655  S
O342        C349   1.259       .  A
O343        V346   1.853   1_655  S
O343        C348   1.257       .  A
O344        V346   1.851       .  S
O344        C347   1.256       .  A
V345        V346   2.066       .  T
O351        V359   1.855       .  S
O351        C361   1.257       .  A
O352        V359   1.850       .  S
O352        C362   1.256       .  A
O353        V359   1.859       .  S
O353        C363   1.259       .  A
O354        V359   1.857       .  S
O354        C364   1.258       .  A
O355        V360   1.948       .  S
O355        C364   1.275       .  A
O356        V360   1.948       .  S
O356        C363   1.274       .  A
O357        V360   1.948       .  S
O357        C362   1.275       .  A
O358        V360   1.944       .  S
O358        C361   1.275       .  A
V359        V360   2.063       .  T
C365        C366   1.416       .  A
C365        C370   1.417       .  A
C365        C914   1.474       .  S
C366        C367   1.399       .  A
C366        H371   1.083       .  S
C367        C368   1.401       .  A
C367        C623   1.491       .  S
C368        C369   1.401       .  A
C368        H372   1.081       .  S
C369        C370   1.401       .  A
C369        C395   1.493       .  S
C370        H373   1.083       .  S
C374        C375   1.417       .  A
C374        C379   1.417       .  A
C374        C917   1.474       .  S
C375        C376   1.400       .  A
C375        H380   1.083       .  S
C376        C377   1.398       .  A
C376        C638   1.489       .  S
C377        C378   1.400       .  A
C377        H381   1.083       .  S
C378        C379   1.400       .  A
C378        C410   1.490       .  S
C379        H382   1.083       .  S
O383        V391   1.854       .  S
O383        C393   1.257       .  A
O384        V391   1.855       .  S
O384        C394   1.258       .  A
O385        V391   1.855   1_545  S
O385        C395   1.258       .  A
O386        V391   1.857       .  S
O386        C396   1.259       .  A
O387        V392   1.944       .  S
O387        C396   1.274       .  A
O388        V392   1.945   1_545  S
O388        C395   1.274       .  A
O389        V392   1.949       .  S
O389        C394   1.275       .  A
O390        V392   1.951       .  S
O390        C393   1.276       .  A
V391        V392   2.061       .  T
C393        C486   1.496       .  S
C394        C702   1.496       .  S
O397        V405   1.852       .  S
O397        C407   1.256       .  A
O398        V405   1.850       .  S
O398        C408   1.257       .  A
O399        V405   1.854   1_556  S
O399        C409   1.257       .  A
O400        V405   1.851       .  S
O400        C410   1.257       .  A
O401        V406   1.945       .  S
O401        C410   1.273       .  A
O402        V406   1.945   1_556  S
O402        C409   1.273       .  A
O403        V406   1.943       .  S
O403        C408   1.273       .  A
O404        V406   1.943       .  S
O404        C407   1.273       .  A
V405        V406   2.075       .  T
C407        C468   1.489       .  S
C408        C686   1.487       .  S
C411        C412   1.421       .  A
C411        C416   1.420       .  A
C411        C898   1.486       .  S
C412        C413   1.399       .  A
C412        H417   1.083       .  S
C413        C414   1.398       .  A
C413        C611   1.491       .  S
C414        C415   1.397       .  A
C414        H418   1.082       .  S
C415        C416   1.401       .  A
C415        C442   1.491       .  S
C416        H419   1.079       .  S
C420        C421   1.417       .  A
C420        C425   1.421       .  A
C420        C901   1.484       .  S
C421        C422   1.398       .  A
C421        H426   1.081       .  S
C422        C423   1.399       .  A
C422        C625   1.489       .  S
C423        C424   1.400       .  A
C423        H427   1.081       .  S
C424        C425   1.401       .  A
C424        C454   1.494       .  S
C425        H428   1.083       .  S
O429        V437   1.947       .  S
O429        C439   1.275   1_655  A
O430        V437   1.946       .  S
O430        C440   1.274       .  A
O431        V437   1.940       .  S
O431        C441   1.274       .  A
O432        V437   1.941   1_455  S
O432        C442   1.273       .  A
O433        V438   1.857   1_455  S
O433        C442   1.259       .  A
O434        V438   1.861       .  S
O434        C441   1.258       .  A
O435        V438   1.855       .  S
O435        C440   1.257       .  A
O436        V438   1.854   1_455  S
O436        C439   1.257       .  A
V437        V438   2.064       .  T
C439        C506   1.494       .  S
C441        C734   1.489       .  S
O443        V451   1.947       .  S
O443        C453   1.274       .  A
O444        V451   1.946   1_545  S
O444        C454   1.274       .  A
O445        V451   1.950       .  S
O445        C455   1.275       .  A
O446        V451   1.950       .  S
O446        C456   1.275       .  A
O447        V452   1.855       .  S
O447        C456   1.258       .  A
O448        V452   1.858       .  S
O448        C455   1.258       .  A
O449        V452   1.857   1_545  S
O449        C454   1.258       .  A
O450        V452   1.852       .  S
O450        C453   1.257       .  A
V451        V452   2.065       .  T
C455        C488   1.498       .  S
C457        C458   1.418       .  A
C457        C462   1.420       .  A
C457        C885   1.478       .  S
C458        C459   1.399       .  A
C458        H463   1.082       .  S
C459        C460   1.397       .  A
C459        C549   1.487       .  S
C460        C461   1.397       .  A
C460        H464   1.084       .  S
C461        C462   1.398       .  A
C461        C536   1.487       .  S
C462        H465   1.083       .  S
C466        C467   1.416       .  A
C466        C471   1.418       .  A
C466        C882   1.477       .  S
C467        C468   1.399       .  A
C467        H472   1.082       .  S
C468        C469   1.401       .  A
C469        C470   1.400       .  A
C469        H473   1.081       .  S
C470        C471   1.398       .  A
C470        C598   1.490       .  S
C471        H474   1.083       .  S
C475        C476   1.421       .  A
C475        C480   1.420       .  A
C475        C869   1.483       .  S
C476        C477   1.402       .  A
C476        H481   1.083       .  S
C477        C478   1.400       .  A
C477        C538   1.496       .  S
C478        C479   1.399       .  A
C478        H482   1.081       .  S
C479        C480   1.401       .  A
C479        C521   1.494       .  S
C480        H483   1.083       .  S
C484        C485   1.419       .  A
C484        C489   1.421       .  A
C484        C866   1.484       .  S
C485        C486   1.401       .  A
C485        H490   1.082       .  S
C486        C487   1.402       .  A
C487        C488   1.401       .  A
C487        H491   1.081       .  S
C488        C489   1.402       .  A
C489        H492   1.083       .  S
C493        C494   1.416       .  A
C493        C498   1.417       .  A
C493        C850   1.471   1_655  S
C494        C495   1.398       .  A
C494        H499   1.083   1_655  S
C495        C496   1.400       .  A
C495        C524   1.489       .  S
C496        C497   1.401       .  A
C496        H500   1.083       .  S
C497        C498   1.399       .  A
C497        C551   1.490       .  S
C498        H501   1.083       .  S
C502        C503   1.415       .  A
C502        C507   1.416       .  A
C502        C853   1.471       .  S
C503        C504   1.398       .  A
C503        H508   1.083       .  S
C504        C505   1.402       .  A
C504        C582   1.492       .  S
C505        C506   1.403       .  A
C505        H509   1.081       .  S
C506        C507   1.400       .  A
C507        H510   1.083       .  S
O511        V519   1.947   1_455  S
O511        C521   1.274       .  A
O512        V519   1.946       .  S
O512        C522   1.274       .  A
O513        V519   1.946   1_455  S
O513        C523   1.275   1_455  A
O514        V519   1.946   1_545  S
O514        C524   1.275       .  A
O515        V520   1.854   1_445  S
O515        C524   1.257   1_455  A
O516        V520   1.851       .  S
O516        C523   1.257       .  A
O517        V520   1.855       .  S
O517        C522   1.258       .  A
O518        V520   1.857   1_455  S
O518        C521   1.259       .  A
V519        V520   2.065       .  T
C522        C695   1.493       .  S
O525        V533   1.855       .  S
O525        C535   1.257       .  A
O526        V533   1.852   1_545  S
O526        C536   1.257       .  A
O527        V533   1.855   1_556  S
O527        C537   1.258       .  A
O528        V533   1.854       .  S
O528        C538   1.258       .  A
O529        V534   1.949       .  S
O529        C538   1.275       .  A
O530        V534   1.953   1_556  S
O530        C537   1.275       .  A
O531        V534   1.944   1_545  S
O531        C536   1.273       .  A
O532        V534   1.946       .  S
O532        C535   1.274       .  A
V533        V534   2.069       .  T
O539        V547   1.942   1_455  S
O539        C549   1.273       .  A
O540        V547   1.940       .  S
O540        C550   1.273       .  A
O541        V547   1.946       .  S
O541        C551   1.274       .  A
O542        V547   1.946   1_456  S
O542        C552   1.274   1_455  A
O543        V548   1.850   1_556  S
O543        C552   1.257       .  A
O544        V548   1.853   1_455  S
O544        C551   1.257   1_455  A
O545        V548   1.853       .  S
O545        C550   1.257       .  A
O546        V548   1.853   1_455  S
O546        C549   1.257       .  A
V547        V548   2.072       .  T
C550        C675   1.488       .  S
C553        C554   1.419       .  A
C553        C558   1.421       .  A
C553        C834   1.483       .  S
C554        C555   1.400       .  A
C554        H559   1.082       .  S
C555        C556   1.400       .  A
C555        C610   1.491       .  S
C556        C557   1.398       .  A
C556        H560   1.081       .  S
C557        C558   1.401       .  A
C557        C584   1.494       .  S
C558        H561   1.083       .  S
C562        C563   1.421       .  A
C562        C567   1.419       .  A
C562        C837   1.485       .  S
C563        C564   1.400       .  A
C563        H568   1.083       .  S
C564        C565   1.402       .  A
C564        C639   1.496       .  S
C565        C566   1.401       .  A
C565        H569   1.081       .  S
C566        C567   1.401       .  A
C566        C596   1.495       .  S
C567        H570   1.081       .  S
O571        V579   1.946       .  S
O571        C581   1.274   1_455  A
O572        V579   1.946       .  S
O572        C582   1.275       .  A
O573        V579   1.948   1_655  S
O573        C583   1.275       .  A
O574        V579   1.945       .  S
O574        C584   1.274       .  A
O575        V580   1.859       .  S
O575        C584   1.259       .  A
O576        V580   1.858   1_655  S
O576        C583   1.259       .  A
O577        V580   1.853       .  S
O577        C582   1.257       .  A
O578        V580   1.853   1_655  S
O578        C581   1.257       .  A
V579        V580   2.062       .  T
C583        C652   1.495       .  S
O585        V593   1.944   1_556  S
O585        C595   1.274       .  A
O586        V593   1.947       .  S
O586        C596   1.275       .  A
O587        V593   1.947       .  S
O587        C597   1.274       .  A
O588        V593   1.943       .  S
O588        C598   1.274       .  A
O589        V594   1.856       .  S
O589        C598   1.257       .  A
O590        V594   1.849       .  S
O590        C597   1.257       .  A
O591        V594   1.856       .  S
O591        C596   1.258       .  A
O592        V594   1.856   1_556  S
O592        C595   1.258       .  A
V593        V594   2.063       .  T
O599        V607   1.856       .  S
O599        C609   1.258       .  A
O600        V607   1.852       .  S
O600        C610   1.257       .  A
O601        V607   1.852       .  S
O601        C611   1.257       .  A
O602        V607   1.859       .  S
O602        C612   1.259       .  A
O603        V608   1.941       .  S
O603        C612   1.273       .  A
O604        V608   1.945       .  S
O604        C611   1.274       .  A
O605        V608   1.947       .  S
O605        C610   1.274       .  A
O606        V608   1.945       .  S
O606        C609   1.274       .  A
V607        V608   2.068       .  T
O613        V621   1.855       .  S
O613        C623   1.258       .  A
O614        V621   1.856       .  S
O614        C624   1.258       .  A
O615        V621   1.857       .  S
O615        C625   1.258       .  A
O616        V621   1.859       .  S
O616        C626   1.258       .  A
O617        V622   1.942       .  S
O617        C626   1.274       .  A
O618        V622   1.943       .  S
O618        C625   1.274       .  A
O619        V622   1.946       .  S
O619        C624   1.274       .  A
O620        V622   1.944       .  S
O620        C623   1.274       .  A
V621        V622   2.060       .  T
C626        C725   1.488       .  S
O627        V635   1.856       .  S
O627        C637   1.259       .  A
O628        V635   1.859       .  S
O628        C638   1.259       .  A
O629        V635   1.854       .  S
O629        C639   1.257       .  A
O630        V635   1.853       .  S
O630        C640   1.257       .  A
O631        V636   1.953       .  S
O631        C640   1.276       .  A
O632        V636   1.951       .  S
O632        C639   1.276       .  A
O633        V636   1.942       .  S
O633        C638   1.273       .  A
O634        V636   1.945       .  S
O634        C637   1.274       .  A
V635        V636   2.062       .  T
C640        C643   1.497       .  S
C641        C642   1.421       .  A
C641        C646   1.422       .  A
C641        C818   1.486       .  S
C642        C643   1.402       .  A
C642        H647   1.082       .  S
C643        C644   1.402       .  A
C644        C645   1.400       .  A
C644        H648   1.080       .  S
C645        C646   1.401       .  A
C645        C670   1.498       .  S
C646        H649   1.083       .  S
C650        C651   1.421       .  A
C650        C655   1.421       .  A
C650        C821   1.487       .  S
C651        C652   1.403       .  A
C651        H656   1.081       .  S
C652        C653   1.401       .  A
C653        C654   1.400       .  A
C653        H657   1.081       .  S
C654        C655   1.401       .  A
C654        C766   1.495       .  S
C655        H658   1.083       .  S
O659        V667   1.851   1_556  S
O659        C669   1.257       .  A
O660        V667   1.856       .  S
O660        C670   1.258       .  A
O661        V667   1.859       .  S
O661        C671   1.258       .  A
O662        V667   1.854       .  S
O662        C672   1.258       .  A
O663        V668   1.949       .  S
O663        C672   1.274       .  A
O664        V668   1.946       .  S
O664        C671   1.274       .  A
O665        V668   1.951       .  S
O665        C670   1.275       .  A
O666        V668   1.952   1_556  S
O666        C669   1.275       .  A
V667        V668   2.070       .  T
C672        C684   1.493       .  S
C673        C674   1.416       .  A
C673        C678   1.423       .  A
C673        C805   1.484       .  S
C674        C675   1.395       .  A
C674        H679   1.081       .  S
C675        C676   1.398       .  A
C676        C677   1.401       .  A
C676        H680   1.081       .  S
C677        C678   1.404       .  A
C677        C720   1.497       .  S
C678        H681   1.083       .  S
C682        C683   1.424       .  A
C682        C687   1.418       .  A
C682        C802   1.482       .  S
C683        C684   1.402       .  A
C683        H688   1.083       .  S
C684        C685   1.398       .  A
C685        C686   1.397       .  A
C685        H689   1.083       .  S
C686        C687   1.397       .  A
C687        H690   1.081       .  S
C691        C692   1.419       .  A
C691        C696   1.418       .  A
C691        C786   1.477       .  S
C692        C693   1.401       .  A
C692        H697   1.083       .  S
C693        C694   1.401       .  A
C693        C721   1.494       .  S
C694        C695   1.400       .  A
C694        H698   1.081       .  S
C695        C696   1.400       .  A
C696        H699   1.083       .  S
C700        C701   1.418       .  A
C700        C705   1.418       .  A
C700        C789   1.477       .  S
C701        C702   1.401       .  A
C701        H706   1.083       .  S
C702        C703   1.402       .  A
C703        C704   1.402       .  A
C703        H707   1.080       .  S
C704        C705   1.401       .  A
C704        C754   1.496       .  S
C705        H708   1.083       .  S
O709        V717   1.856       .  S
O709        C719   1.259       .  A
O710        V717   1.857   1_545  S
O710        C720   1.259       .  A
O711        V717   1.854       .  S
O711        C721   1.258       .  A
O712        V717   1.858   1_556  S
O712        C722   1.258       .  A
O713        V718   1.949   1_556  S
O713        C722   1.276       .  A
O714        V718   1.949       .  S
O714        C721   1.275       .  A
O715        V718   1.950   1_545  S
O715        C720   1.275       .  A
O716        V718   1.949       .  S
O716        C719   1.275       .  A
V717        V718   2.060       .  T
C723        C724   1.416       .  A
C723        C728   1.423       .  A
C723        C770   1.483       .  S
C724        C725   1.397       .  A
C724        H729   1.082       .  S
C725        C726   1.398       .  A
C726        C727   1.401       .  A
C726        H730   1.081       .  S
C727        C728   1.403       .  A
C727        C751   1.497       .  S
C728        H731   1.083       .  S
C732        C733   1.416       .  A
C732        C737   1.422       .  A
C732        C773   1.484       .  S
C733        C734   1.398       .  A
C733        H738   1.081       .  S
C734        C735   1.400       .  A
C735        C736   1.402       .  A
C735        H739   1.082       .  S
C736        C737   1.403       .  A
C736        C767   1.495       .  S
C737        H740   1.083       .  S
O741        V749   1.856   1_545  S
O741        C751   1.258       .  A
O742        V749   1.858       .  S
O742        C752   1.259       .  A
O743        V749   1.858       .  S
O743        C753   1.258       .  A
O744        V749   1.855       .  S
O744        C754   1.258       .  A
O745        V750   1.949       .  S
O745        C754   1.275       .  A
O746        V750   1.946       .  S
O746        C753   1.274       .  A
O747        V750   1.949       .  S
O747        C752   1.275       .  A
O748        V750   1.951   1_545  S
O748        C751   1.275       .  A
V749        V750   2.061       .  T
O755        V763   1.952       .  S
O755        C765   1.275       .  A
O756        V763   1.947       .  S
O756        C766   1.275       .  A
O757        V763   1.949       .  S
O757        C767   1.275       .  A
O758        V763   1.951       .  S
O758        C768   1.276       .  A
O759        V764   1.854       .  S
O759        C768   1.257       .  A
O760        V764   1.859       .  S
O760        C767   1.258       .  A
O761        V764   1.858       .  S
O761        C766   1.259       .  A
O762        V764   1.856       .  S
O762        C765   1.259       .  A
V763        V764   2.063       .  T
C769        C770   1.403       .  A
C769        C774   1.407       .  A
C769        H776   1.083       .  S
C770        C771   1.420       .  A
C771        C772   1.406       .  A
C771        C778   1.521       .  S
C772        C773   1.402       .  A
C772        H777   1.083       .  S
C773        C774   1.420       .  A
C774        C775   1.521       .  S
C775        F779   1.385       .  S
C775        F780   1.383       .  S
C775        F781   1.381       .  S
C778        F782   1.381       .  S
C778        F783   1.383       .  S
C778        F784   1.385       .  S
C785        C786   1.403   1_545  A
C785        C790   1.408       .  A
C785        H792   1.083       .  S
C786        C787   1.415       .  A
C787        C788   1.406       .  A
C787        C794   1.519       .  S
C788        C789   1.402       .  A
C788        H793   1.083       .  S
C789        C790   1.415   1_565  A
C790        C791   1.518       .  S
C791        F795   1.384       .  S
C791        F796   1.382       .  S
C791        F797   1.383       .  S
C794        F798   1.383       .  S
C794        F799   1.382       .  S
C794        F800   1.385       .  S
C801        C802   1.402       .  A
C801        C806   1.404       .  A
C801        H808   1.084       .  S
C802        C803   1.419   1_554  A
C803        C804   1.407       .  A
C803        C810   1.520       .  S
C804        C805   1.404   1_556  A
C804        H809   1.084       .  S
C805        C806   1.421       .  A
C806        C807   1.522       .  S
C807        F811   1.385       .  S
C807        F812   1.382       .  S
C807        F813   1.383       .  S
C810        F814   1.383       .  S
C810        F815   1.382       .  S
C810        F816   1.385       .  S
C817        C818   1.404       .  A
C817        C822   1.409       .  A
C817        H824   1.083       .  S
C818        C819   1.419       .  A
C819        C820   1.408       .  A
C819        C826   1.521       .  S
C820        C821   1.404       .  A
C820        H825   1.083       .  S
C821        C822   1.419       .  A
C822        C823   1.520       .  S
C823        F827   1.385       .  S
C823        F828   1.381       .  S
C823        F829   1.383       .  S
C826        F830   1.383       .  S
C826        F831   1.381       .  S
C826        F832   1.385       .  S
C833        C834   1.403       .  A
C833        C838   1.407       .  A
C833        H840   1.083       .  S
C834        C835   1.418       .  A
C835        C836   1.406       .  A
C835        C842   1.521       .  S
C836        C837   1.404       .  A
C836        H841   1.083       .  S
C837        C838   1.420       .  A
C838        C839   1.521       .  S
C839        F843   1.385       .  S
C839        F844   1.383       .  S
C839        F845   1.381       .  S
C842        F846   1.381       .  S
C842        F847   1.383       .  S
C842        F848   1.385       .  S
C849        C850   1.402   1_655  A
C849        C854   1.405       .  A
C849        H856   1.083       .  S
C850        C851   1.413       .  A
C851        C852   1.404       .  A
C851        C858   1.518       .  S
C852        C853   1.402       .  A
C852        H857   1.083       .  S
C853        C854   1.413   1_455  A
C854        C855   1.517       .  S
C855        F859   1.384       .  S
C855        F860   1.383       .  S
C855        F861   1.383       .  S
C858        F862   1.383       .  S
C858        F863   1.383       .  S
C858        F864   1.384       .  S
C865        C866   1.403   1_545  A
C865        C870   1.407       .  A
C865        H872   1.083       .  S
C866        C867   1.418       .  A
C867        C868   1.408       .  A
C867        C874   1.520       .  S
C868        C869   1.403       .  A
C868        H873   1.083       .  S
C869        C870   1.418   1_565  A
C870        C871   1.520       .  S
C871        F875   1.385       .  S
C871        F876   1.381       .  S
C871        F877   1.383       .  S
C874        F878   1.383       .  S
C874        F879   1.381       .  S
C874        F880   1.385       .  S
C881        C882   1.402       .  A
C881        C886   1.404       .  A
C881        H888   1.083       .  S
C882        C883   1.418   1_554  A
C883        C884   1.405       .  A
C883        C890   1.520       .  S
C884        C885   1.403   1_556  A
C884        H889   1.083       .  S
C885        C886   1.419       .  A
C886        C887   1.521       .  S
C887        F891   1.385       .  S
C887        F892   1.383       .  S
C887        F893   1.381       .  S
C890        F894   1.381       .  S
C890        F895   1.383       .  S
C890        F896   1.385       .  S
C897        C898   1.404       .  A
C897        C902   1.404       .  A
C897        H904   1.083       .  S
C898        C899   1.420       .  A
C899        C900   1.408       .  A
C899        C906   1.520       .  S
C900        C901   1.405       .  A
C900        H905   1.083       .  S
C901        C902   1.419       .  A
C902        C903   1.522       .  S
C903        F907   1.385       .  S
C903        F908   1.381       .  S
C903        F909   1.383       .  S
C906        F910   1.383       .  S
C906        F911   1.382       .  S
C906        F912   1.385       .  S
C913        C914   1.402       .  A
C913        C918   1.406       .  A
C913        H920   1.083       .  S
C914        C915   1.414       .  A
C915        C916   1.405       .  A
C915        C922   1.518       .  S
C916        C917   1.402       .  A
C916        H921   1.083       .  S
C917        C918   1.414       .  A
C918        C919   1.517       .  S
C919        F923   1.384       .  S
C919        F924   1.383       .  S
C919        F925   1.383       .  S
C922        F926   1.383       .  S
C922        F927   1.383       .  S
C922        F928   1.384       .  S
C929        C930   1.403       .  A
C929        C934   1.407       .  A
C929        H936   1.083       .  S
C930        C931   1.419       .  A
C931        C932   1.408       .  A
C931        C938   1.520       .  S
C932        C933   1.404       .  A
C932        H937   1.083       .  S
C933        C934   1.420       .  A
C934        C935   1.521       .  S
C935        F939   1.385       .  S
C935        F940   1.381       .  S
C935        F941   1.383       .  S
C938        F942   1.383       .  S
C938        F943   1.381       .  S
C938        F944   1.385       .  S
C945        C946   1.401       .  A
C945        C950   1.405       .  A
C945        H952   1.083       .  S
C946        C947   1.415   1_655  A
C947        C948   1.403       .  A
C947        C954   1.519       .  S
C948        C949   1.400   1_455  A
C948        H953   1.083       .  S
C949        C950   1.414       .  A
C950        C951   1.517       .  S
C951        F955   1.384       .  S
C951        F956   1.383       .  S
C951        F957   1.383       .  S
C954        F958   1.383       .  S
C954        F959   1.382       .  S
C954        F960   1.385       .  S
C961        C962   1.401       .  A
C961        C966   1.405       .  A
C961        H968   1.083       .  S
C962        C963   1.417   1_554  A
C963        C964   1.407       .  A
C963        C970   1.519       .  S
C964        C965   1.404   1_556  A
C964        H969   1.083       .  S
C965        C966   1.419       .  A
C966        C967   1.521       .  S
C967        F971   1.385       .  S
C967        F972   1.383       .  S
C967        F973   1.381       .  S
C970        F974   1.381       .  S
C970        F975   1.383       .  S
C970        F976   1.385       .  S
C977        C978   1.402       .  A
C977        C982   1.406       .  A
C977        H984   1.083       .  S
C978        C979   1.416       .  A
C979        C980   1.405       .  A
C979        C986   1.519       .  S
C980        C981   1.401       .  A
C980        H985   1.083       .  S
C981        C982   1.415       .  A
C982        C983   1.518       .  S
C983        F987   1.384       .  S
C983        F988   1.383       .  S
C983        F989   1.382       .  S
C986        F990   1.382       .  S
C986        F991   1.383       .  S
C986        F992   1.385       .  S
C993        C994   1.404       .  A
C993        C998   1.406       .  A
C993       H1000   1.083       .  S
C994        C995   1.419       .  A
C995        C996   1.406       .  A
C995       C1002   1.521       .  S
C996        C997   1.403       .  A
C996       H1001   1.083       .  S
C997        C998   1.418       .  A
C998        C999   1.521       .  S
C999       F1003   1.385       .  S
C999       F1004   1.381       .  S
C999       F1005   1.383       .  S
C1002      F1006   1.383       .  S
C1002      F1007   1.381       .  S
C1002      F1008   1.385       .  S
C1009      C1010   1.403       .  A
C1009      C1014   1.408       .  A
C1009      H1016   1.083       .  S
C1010      C1011   1.422   1_565  A
C1011      C1012   1.405       .  A
C1011      C1018   1.522       .  S
C1012      C1013   1.402   1_545  A
C1012      H1017   1.083       .  S
C1013      C1014   1.421       .  A
C1014      C1015   1.521       .  S
C1015      F1019   1.385       .  S
C1015      F1020   1.381       .  S
C1015      F1021   1.383       .  S
C1018      F1022   1.383       .  S
C1018      F1023   1.381       .  S
C1018      F1024   1.385       .  S
C1025      C1026   1.401       .  A
C1025      C1030   1.407       .  A
C1025      H1032   1.083       .  S
C1026      C1027   1.415   1_655  A
C1027      C1028   1.405       .  A
C1027      C1034   1.518       .  S
C1028      C1029   1.401   1_455  A
C1028      H1033   1.083       .  S
C1029      C1030   1.415       .  A
C1030      C1031   1.517       .  S
C1031      F1035   1.384       .  S
C1031      F1036   1.383       .  S
C1031      F1037   1.383       .  S
C1034      F1038   1.383       .  S
C1034      F1039   1.383       .  S
C1034      F1040   1.384       .  S
C1041      C1042   1.402       .  A
C1041      C1046   1.406       .  A
C1041      H1048   1.083       .  S
C1042      C1043   1.414       .  A
C1043      C1044   1.404       .  A
C1043      C1050   1.518       .  S
C1044      C1045   1.402       .  A
C1044      H1049   1.083       .  S
C1045      C1046   1.415       .  A
C1046      C1047   1.518       .  S
C1047      F1051   1.384       .  S
C1047      F1052   1.383       .  S
C1047      F1053   1.382       .  S
C1050      F1054   1.382       .  S
C1050      F1055   1.383       .  S
C1050      F1056   1.384       .  S
C1057      C1058   1.403       .  A
C1057      C1062   1.406       .  A
C1057      H1064   1.083       .  S
C1058      C1059   1.421   1_655  A
C1059      C1060   1.405       .  A
C1059      C1066   1.522       .  S
C1060      C1061   1.401   1_455  A
C1060      H1065   1.083       .  S
C1061      C1062   1.420       .  A
C1062      C1063   1.521       .  S
C1063      F1067   1.385       .  S
C1063      F1068   1.383       .  S
C1063      F1069   1.381       .  S
C1066      F1070   1.381       .  S
C1066      F1071   1.383       .  S
C1066      F1072   1.385       .  S
C1073      C1074   1.402   1_545  A
C1073      C1078   1.406       .  A
C1073      H1080   1.083       .  S
C1074      C1075   1.418       .  A
C1075      C1076   1.406       .  A
C1075      C1082   1.520       .  S
C1076      C1077   1.402       .  A
C1076      H1081   1.083       .  S
C1077      C1078   1.418   1_565  A
C1078      C1079   1.520       .  S
C1079      F1083   1.385       .  S
C1079      F1084   1.381       .  S
C1079      F1085   1.383       .  S
C1082      F1086   1.383       .  S
C1082      F1087   1.381       .  S
C1082      F1088   1.385       .  S
C1089      C1090   1.405   1_556  A
C1089      C1094   1.407       .  A
C1089      H1096   1.084       .  S
C1090      C1091   1.422       .  A
C1091      C1092   1.408       .  A
C1091      C1098   1.521       .  S
C1092      C1093   1.405       .  A
C1092      H1097   1.084       .  S
C1093      C1094   1.422   1_554  A
C1094      C1095   1.522       .  S
C1095      F1099   1.385       .  S
C1095      F1100   1.381       .  S
C1095      F1101   1.383       .  S
C1098      F1102   1.383       .  S
C1098      F1103   1.381       .  S
C1098      F1104   1.385       .  S
C1105      C1106   1.403       .  A
C1105      C1110   1.408       .  A
C1105      H1112   1.084       .  S
C1106      C1107   1.420       .  A
C1107      C1108   1.405       .  A
C1107      C1114   1.522       .  S
C1108      C1109   1.403       .  A
C1108      H1113   1.083       .  S
C1109      C1110   1.420       .  A
C1110      C1111   1.519       .  S
C1111      F1115   1.385       .  S
C1111      F1116   1.382       .  S
C1111      F1117   1.383       .  S
C1114      F1118   1.383       .  S
C1114      F1119   1.381       .  S
C1114      F1120   1.385       .  S
C1121      C1122   1.402       .  A
C1121      C1126   1.408       .  A
C1121      H1128   1.083       .  S
C1122      C1123   1.418       .  A
C1123      C1124   1.408       .  A
C1123      C1130   1.519       .  S
C1124      C1125   1.403       .  A
C1124      H1129   1.083       .  S
C1125      C1126   1.418       .  A
C1126      C1127   1.519       .  S
C1127      F1131   1.385       .  S
C1127      F1132   1.381       .  S
C1127      F1133   1.383       .  S
C1130      F1134   1.383       .  S
C1130      F1135   1.382       .  S
C1130      F1136   1.385       .  S
C1137      C1138   1.401       .  A
C1137      C1142   1.404       .  A
C1137      H1144   1.083       .  S
C1138      C1139   1.414       .  A
C1139      C1140   1.405       .  A
C1139      C1146   1.517       .  S
C1140      C1141   1.401       .  A
C1140      H1145   1.083       .  S
C1141      C1142   1.414       .  A
C1142      C1143   1.518       .  S
C1143      F1147   1.384       .  S
C1143      F1148   1.383       .  S
C1143      F1149   1.382       .  S
C1146      F1150   1.383       .  S
C1146      F1151   1.383       .  S
C1146      F1152   1.384       .  S
