geometry optimzed in LAMMPS
_audit_creation_date              2020-12-01 
_audit_creation_method            'lammps2cif' 
_symmetry_space_group_name_H-M    'P1' 
_symmetry_Int_Tables_number       1 
_symmetry_cell_setting            triclinic 
loop_ 
_symmetry_equiv_pos_as_xyz 
  x,y,z 
_cell_length_a                    40.27766811 
_cell_length_b                    39.8841537122231 
_cell_length_c                    26.912263991757325 
_cell_angle_alpha                 89.73244586327044 
_cell_angle_beta                  89.90239951274614 
_cell_angle_gamma                 90.02937617147101 
loop_ 
_atom_site_label 
_atom_site_type_symbol 
_atom_site_fract_x 
_atom_site_fract_y 
_atom_site_fract_z 
_atom_site_charge 
C1          C  0.35411161  0.19517017  0.50124100     0.82200
N2          N  0.32224607  0.22063948  0.99978187    -0.76100
C3          C  0.29121240  0.20675302  0.99929634     0.84700
N4          N  0.28798197  0.17294949  0.99952567    -0.76000
C5          C  0.31507770  0.15289293  0.00024965     0.84700
N6          N  0.34227896  0.16330183  0.50133256    -0.77800
C7          C  0.45578220  0.40515881  0.24624839     0.82200
N8          N  0.47712003  0.43165011  0.24721698    -0.76100
C9          C  0.46513480  0.46361341  0.24661261     0.84700
N10         N  0.43191395  0.46875768  0.24510939    -0.76000
C11         C  0.41061696  0.44251317  0.24420831     0.84700
N12         N  0.42248723  0.41065759  0.24484941    -0.77800
C13         C  0.20881570  0.33672381  0.99836198     0.82200
N14         N  0.23519206  0.31580596  0.99858216    -0.76100
C15         C  0.23088747  0.28214606  0.99840400     0.84700
N16         N  0.19941405  0.26923118  0.99802800    -0.76000
C17         C  0.17265376  0.29029826  0.99779016     0.84700
N18         N  0.17753397  0.32404322  0.99797983    -0.77800
O19         O  0.28926559  0.45114730  0.24759759    -0.71000
O20         O  0.19731330  0.48845419  0.25279917    -0.71900
O21         O  0.24142239  0.47136695  0.17561128    -0.60600
O22         O  0.24425473  0.46908571  0.32497309    -0.69000
O23         O  0.26473047  0.02325111  0.32488815    -0.68500
O24         O  0.26676480  0.02154647  0.17573488    -0.59800
O25         O  0.21672378  0.03320642  0.24873888    -0.72300
O26         O  0.31499440  0.01138669  0.25178007    -0.71100
Cu27       Cu  0.24241142  0.46817558  0.25024143     1.04600
Cu28       Cu  0.26621702  0.02426787  0.25024825     1.04300
C29         C  0.31395832  0.47117775  0.24675048     0.95200
C30         C  0.19536614  0.00947541  0.24869070     0.94400
C31         C  0.25089247  0.49777855  0.15259603     0.86500
C32         C  0.25482679  0.49471949  0.34843400     0.92800
O33         O  0.25751377  0.05049474  0.00030130    -0.71000
O34         O  0.20897684  0.45846723  0.00073869    -0.71900
O35         O  0.23752137  0.00421546  0.07466837    -0.60600
O36         O  0.23212560  0.00470502  0.42679424    -0.69000
O37         O  0.28159104  0.48972739  0.42633200    -0.68500
O38         O  0.27622453  0.49226682  0.07414136    -0.59800
O39         O  0.26229818  0.44411022  0.99959154    -0.72300
O40         O  0.29977148  0.03675219  0.49997799    -0.71100
Cu41       Cu  0.23664692  0.00466573  0.00026471     1.04600
Cu42       Cu  0.28308197  0.48974440  0.50098066     1.04300
C43         C  0.28896258  0.05458631  0.00110108     0.95200
C44         C  0.24156911  0.43015467  0.50191914     0.94400
C45         C  0.24982140  0.49876027  0.09840938     0.86500
C46         C  0.25457503  0.49466202  0.40268764     0.92800
C47         C  0.09787411  0.03934834  0.24803645     0.82200
N48         N  0.07088063  0.01862086  0.24814459    -0.76100
C49         C  0.03957143  0.03186332  0.24823383     0.84700
N50         N  0.03565531  0.06555044  0.24822364    -0.76000
C51         C  0.06230485  0.08615617  0.24813289     0.84700
N52         N  0.09343539  0.07314245  0.24805991    -0.77800
O53         O  0.48759863  0.23605594  0.17626264    -0.71000
O54         O  0.48824784  0.23685091  0.32490503    -0.71900
O55         O  0.47041741  0.28411640  0.24982031    -0.60600
O56         O  0.50608443  0.18953110  0.25124028    -0.69000
O57         O  0.05633246  0.20872376  0.24821695    -0.68500
O58         O  0.02157268  0.30279472  0.25139194    -0.59800
O59         O  0.03894120  0.25406391  0.32468033    -0.72300
O60         O  0.03802362  0.25676496  0.17493956    -0.71100
Cu61       Cu  0.48628889  0.23596375  0.25060951     1.04600
Cu62       Cu  0.04053816  0.25631606  0.24980909     1.04300
C63         C  0.01212152  0.24670998  0.15200412     0.95200
C64         C  0.01297445  0.24407249  0.34778035     0.94400
C65         C  0.49075839  0.30874123  0.24950568     0.86500
C66         C  0.03598059  0.18424119  0.24851155     0.92800
O67         O  0.01767502  0.21879934  0.07520829    -0.71000
O68         O  0.02291857  0.21687294  0.42481989    -0.71900
O69         O  0.06757102  0.23560193  0.50089813    -0.60600
O70         O  0.46784439  0.20857976  0.00074352    -0.69000
O71         O  0.45626111  0.26298887  0.00101801    -0.68500
O72         O  0.04618949  0.28698490  0.50168616    -0.59800
O73         O  0.50387593  0.27239199  0.42502127    -0.72300
O74         O  0.50644354  0.27350973  0.07479293    -0.71100
Cu75       Cu  0.02276499  0.21402077  0.49962780     1.04600
Cu76       Cu  0.50534943  0.27543916  0.00033404     1.04300
C77         C  0.01169275  0.24622055  0.09781853     0.95200
C78         C  0.01262989  0.24301940  0.40194323     0.94400
C79         C  0.07486279  0.26056301  0.99825395     0.86500
C80         C  0.45113324  0.22291966  0.49890586     0.92800
C81         C  0.04848148  0.15061821  0.24814645    -0.11300
C82         C  0.05690246  0.12165094  0.24810123    -0.12800
C83         C  0.13133550  0.02599402  0.24796430    -0.11300
C84         C  0.16027763  0.01749656  0.24807771    -0.12800
C85         C  0.22205029  0.40146556  0.99937402    -0.11300
C86         C  0.21457320  0.37220749  0.99882788    -0.12800
C87         C  0.10989761  0.26912085  0.99773050    -0.11300
C88         C  0.13894737  0.27739529  0.99762133    -0.12800
C89         C  0.48720578  0.49320603  0.24823910    -0.14400
C90         C  0.00924048  0.01083933  0.24858999    -0.29600
H91         H  0.47554405  0.51775021  0.24693975     0.14600
H92         H  0.98541358  0.02358060  0.24870048     0.15200
C93         C  0.37560285  0.44901229  0.24397539    -0.11300
C94         C  0.34702989  0.45794151  0.24485176    -0.12800
C95         C  0.46829006  0.37125794  0.24741364    -0.11300
C96         C  0.47836472  0.34267645  0.24851636    -0.12800
C97         C  0.26109836  0.26094187  0.99881855    -0.14400
C98         C  0.26055209  0.22737014  0.99863846    -0.29600
H99         H  0.23255258  0.21887813  0.50309715     0.14600
H100        H  0.23683359  0.21438450  0.99811594     0.15200
C101        C  0.38911216  0.20169382  0.49980376    -0.11300
C102        C  0.41777732  0.21034274  0.49898023    -0.12800
C103        C  0.30222606  0.08804872  0.00094033    -0.11300
C104        C  0.31040845  0.11716600  0.00064255    -0.12800
C105        C  0.34967082  0.20056799  0.00048699     0.82200
N106        N  0.33278386  0.22136147  0.50234554    -0.76100
C107        C  0.29955643  0.21613660  0.50348781     0.84700
N108        N  0.28759755  0.18411775  0.50355736    -0.76000
C109        C  0.30900389  0.15767869  0.50252827     0.84700
N110        N  0.34594772  0.16664818  0.00072822    -0.77800
C111        C  0.45350069  0.40637403  0.75604704     0.82200
N112        N  0.47523409  0.43243434  0.75496219    -0.76100
C113        C  0.46386520  0.46455201  0.75570063     0.84700
N114        N  0.43070385  0.47033058  0.75744340    -0.76000
C115        C  0.40893378  0.44440787  0.75846262     0.84700
N116        N  0.42030530  0.41236887  0.75766778    -0.77800
C117        C  0.21361495  0.33174747  0.50302678     0.82200
N118        N  0.23467376  0.30505783  0.50336182    -0.76100
C119        C  0.22232977  0.27319873  0.50340646     0.84700
N120        N  0.18901311  0.26840217  0.50308548    -0.76000
C121        C  0.16803340  0.29492834  0.50278328     0.84700
N122        N  0.18028860  0.32659913  0.50273543    -0.77800
O123        O  0.28732779  0.45321662  0.75465362    -0.71000
O124        O  0.19522686  0.49125892  0.74794053    -0.71900
O125        O  0.24263645  0.47107222  0.67677749    -0.60600
O126        O  0.23905629  0.47367827  0.82571276    -0.69000
O127        O  0.27278414  0.02142318  0.82550844    -0.68500
O128        O  0.27096725  0.02225596  0.67589132    -0.59800
O129        O  0.22460993  0.03721372  0.75193271    -0.72300
O130        O  0.31970568  0.00736470  0.74933540    -0.71100
Cu131      Cu  0.24036741  0.47048023  0.75131795     1.04600
Cu132      Cu  0.27262715  0.02392446  0.75067040     1.04300
C133        C  0.31211104  0.47318357  0.75528420     0.95200
C134        C  0.20144572  0.01541059  0.75243973     0.94400
C135        C  0.25357457  0.49647929  0.65281152     0.86500
C136        C  0.24882307  0.49990842  0.84842342     0.92800
O137        O  0.24692276  0.05258510  0.50187181    -0.71000
O138        O  0.21752118  0.45098795  0.50126041    -0.71900
O139        O  0.23394235  0.00362095  0.57646365    -0.60600
O140        O  0.23912769  0.00416755  0.92592521    -0.69000
O141        O  0.27514268  0.49351129  0.92580376    -0.68500
O142        O  0.28102007  0.49077771  0.57554676    -0.59800
O143        O  0.27165909  0.44034244  0.50198701    -0.72300
O144        O  0.30860125  0.02948944  0.00195164    -0.71100
Cu145      Cu  0.23094597  0.00468672  0.50171300     1.04600
Cu146      Cu  0.27720062  0.49242770  0.99990163     1.04300
C147        C  0.27778422  0.05987007  0.50111519     0.95200
C148        C  0.23155411  0.43611600  0.99995732     0.94400
C149        C  0.25379969  0.49593378  0.59861423     0.86500
C150        C  0.24842275  0.50034867  0.90258963     0.92800
C151        C  0.10375179  0.04214735  0.75109026     0.82200
N152        N  0.08185920  0.01638354  0.75018023    -0.76100
C153        C  0.04872821  0.02229314  0.74974774     0.84700
N154        N  0.03744730  0.05452164  0.75018795    -0.76000
C155        C  0.05932581  0.08054410  0.75104208     0.84700
N156        N  0.09252771  0.07428125  0.75150907    -0.77800
O157        O  0.48435324  0.23906842  0.67567605    -0.71000
O158        O  0.48490203  0.23749668  0.82488434    -0.71900
O159        O  0.46752479  0.28586636  0.75143779    -0.60600
O160        O  0.50162248  0.19135941  0.74924380    -0.69000
O161        O  0.05029682  0.20143301  0.75134588    -0.68500
O162        O  0.02280332  0.29897346  0.74789046    -0.59800
O163        O  0.03638910  0.25116333  0.82420427    -0.72300
O164        O  0.03667697  0.24880685  0.67501890    -0.71100
Cu165      Cu  0.48276080  0.23782324  0.75030481     1.04600
Cu166      Cu  0.03839299  0.25064503  0.74958271     1.04300
C167        C  0.01008887  0.24113065  0.65193482     0.95200
C168        C  0.00993455  0.24337773  0.84779438     0.94400
C169        C  0.48811216  0.31021974  0.75142828     0.86500
C170        C  0.02815789  0.17847623  0.75140320     0.92800
O171        O  0.02131382  0.21533476  0.57449603    -0.71000
O172        O  0.01665257  0.21700989  0.92603096    -0.71900
O173        O  0.06603962  0.22978676  0.99943853    -0.60600
O174        O  0.47535984  0.20236485  0.49987570    -0.69000
O175        O  0.45604502  0.25456530  0.49827504    -0.68500
O176        O  0.05301290  0.28385226  0.99769998    -0.59800
O177        O  0.50546030  0.27388943  0.92583463    -0.72300
O178        O  0.50144065  0.27320807  0.57382559    -0.71100
Cu179      Cu  0.01761864  0.21593765  0.00069787     1.04600
Cu180      Cu  0.50197565  0.27443619  0.49935457     1.04300
C181        C  0.01010338  0.24082324  0.59772802     0.95200
C182        C  0.00993053  0.24383140  0.90200544     0.94400
C183        C  0.07121934  0.26735924  0.50164589     0.86500
C184        C  0.44664192  0.23239282  0.00099005     0.92800
C185        C  0.03822066  0.14368051  0.75168288    -0.11300
C186        C  0.04743340  0.11475205  0.75149469    -0.12800
C187        C  0.13870731  0.03490690  0.75187503    -0.11300
C188        C  0.16746746  0.02641424  0.75242877    -0.12800
C189        C  0.23440360  0.39475258  0.50252481    -0.11300
C190        C  0.22624360  0.36556848  0.50285281    -0.12800
C191        C  0.10416516  0.28086550  0.50227544    -0.11300
C192        C  0.13293528  0.28907864  0.50253964    -0.12800
C193        C  0.48676917  0.49344770  0.75369651    -0.14400
C194        C  0.02586212  0.99327596  0.74899738    -0.29600
H195        H  0.47585635  0.51836931  0.75521345     0.14600
H196        H  0.03684871  0.96838600  0.74812943     0.15200
C197        C  0.37393143  0.45130371  0.75869919    -0.11300
C198        C  0.34525399  0.45999738  0.75762566    -0.12800
C199        C  0.46563839  0.37248346  0.75449799    -0.11300
C200        C  0.47590613  0.34407013  0.75293338    -0.12800
C201        C  0.24423781  0.24342493  0.50360988    -0.14400
C202        C  0.27744131  0.24572912  0.50411453    -0.29600
H203        H  0.28488988  0.27379704  0.99936426     0.14600
H204        H  0.28908762  0.27030261  0.50453142     0.15200
C205        C  0.38281369  0.21486786  0.00089935    -0.11300
C206        C  0.41152007  0.22426379  0.00108398    -0.12800
C207        C  0.28786014  0.09462571  0.50169516    -0.11300
C208        C  0.29672494  0.12364504  0.50222585    -0.12800
C209        C  0.34122887  0.69422471  0.50289787     0.82200
N210        N  0.32183034  0.72349885  0.99608458    -0.76100
C211        C  0.28836818  0.71969496  0.99719527     0.84700
N212        N  0.27510376  0.68824483  0.99790017    -0.76000
C213        C  0.29534251  0.66099101  0.99741437     0.84700
N214        N  0.32813216  0.66293020  0.50226298    -0.77800
C215        C  0.45625621  0.90228955  0.24704182     0.82200
N216        N  0.48315462  0.92264414  0.24661951    -0.76100
C217        C  0.47957115  0.95641046  0.24789481     0.84700
N218        N  0.44843224  0.96992843  0.24958610    -0.76000
C219        C  0.42124531  0.94952057  0.24996248     0.84700
N220        N  0.42528970  0.91568300  0.24874832    -0.77800
C221        C  0.20321979  0.83615984  0.00171467     0.82200
N222        N  0.22436445  0.80954802  0.00083325    -0.76100
C223        C  0.21210918  0.77769692  0.00090096     0.84700
N224        N  0.17884684  0.77278788  0.00182518    -0.76000
C225        C  0.15778768  0.79919226  0.00268278     0.84700
N226        N  0.16989736  0.83093242  0.00259465    -0.77800
O227        O  0.30284722  0.95708363  0.25358718    -0.71000
O228        O  0.20475107  0.97886032  0.24942816    -0.71900
O229        O  0.25550829  0.96698278  0.17697346    -0.60600
O230        O  0.25256823  0.96888280  0.32605795    -0.69000
O231        O  0.26521595  0.52065980  0.32519316    -0.68500
O232        O  0.26193694  0.52312373  0.17618293    -0.59800
O233        O  0.21737325  0.54042408  0.25351615    -0.72300
O234        O  0.30978053  0.50290450  0.24773734    -0.71100
Cu235      Cu  0.25347416  0.96606975  0.25157951     1.04600
Cu236      Cu  0.26435603  0.52360674  0.25068986     1.04300
C237        C  0.32426933  0.98072785  0.25290980     0.95200
C238        C  0.19290751  0.52007047  0.25386875     0.94400
C239        C  0.26170226  0.99398117  0.15303504     0.86500
C240        C  0.25828137  0.99629908  0.34879436     0.92800
O241        O  0.23417369  0.55549865  0.00109469    -0.71000
O242        O  0.21961424  0.95698151  0.00035441    -0.71900
O243        O  0.22275369  0.50600714  0.07601874    -0.60600
O244        O  0.22733632  0.49989582  0.42574724    -0.69000
O245        O  0.28484709  0.98825773  0.42582718    -0.68500
O246        O  0.28836091  0.98257176  0.07635648    -0.59800
O247        O  0.27078538  0.93618883  0.00110647    -0.72300
O248        O  0.29046727  0.53971626  0.50003809    -0.71100
Cu249      Cu  0.21998930  0.50732508  0.00104316     1.04600
Cu250      Cu  0.28743993  0.98745538  0.50005821     1.04300
C251        C  0.26471884  0.56388337  0.00041970     0.95200
C252        C  0.23992294  0.93231569  0.50067416     0.94400
C253        C  0.26259591  0.99348766  0.09884330     0.86500
C254        C  0.25835753  0.99653262  0.40298409     0.92800
C255        C  0.09552097  0.54389385  0.25356241     0.82200
N256        N  0.07525912  0.51677239  0.25276455    -0.76100
C257        C  0.04186234  0.52074810  0.25075873     0.84700
N258        N  0.02880596  0.55226407  0.24955905    -0.76000
C259        C  0.04920380  0.57942242  0.25035336     0.84700
N260        N  0.08254551  0.57518121  0.25231565    -0.77800
O261        O  0.47226512  0.73142024  0.17484317    -0.71000
O262        O  0.47168858  0.73203990  0.32448694    -0.71900
O263        O  0.45690898  0.77954981  0.24862415    -0.60600
O264        O  0.48652112  0.68333584  0.25069556    -0.69000
O265        O  0.03964880  0.69897146  0.24866597    -0.68500
O266        O  0.01176532  0.79570527  0.25046912    -0.59800
O267        O  0.02638474  0.74687661  0.32375592    -0.72300
O268        O  0.02607757  0.74838262  0.17521337    -0.71100
Cu269      Cu  0.46998528  0.73097050  0.24965414     1.04600
Cu270      Cu  0.02784407  0.74798920  0.24949596     1.04300
C271        C  0.99956737  0.74132695  0.15164215     0.95200
C272        C  0.99988408  0.73966092  0.34747235     0.94400
C273        C  0.47864144  0.80282537  0.24815491     0.86500
C274        C  0.01730605  0.67622769  0.24868308     0.92800
O275        O  0.01099946  0.71750515  0.07334864    -0.71000
O276        O  0.01172907  0.71585824  0.42600306    -0.71900
O277        O  0.05837699  0.73812564  0.49801399    -0.60600
O278        O  0.46370405  0.69624144  0.99881617    -0.69000
O279        O  0.44539179  0.74885204  0.99738976    -0.68500
O280        O  0.03626334  0.78914894  0.49643883    -0.59800
O281        O  0.48940592  0.76663499  0.42532592    -0.72300
O282        O  0.49035708  0.76600677  0.07362091    -0.71100
Cu283      Cu  0.01342403  0.71581428  0.50048597     1.04600
Cu284      Cu  0.49099897  0.76768455  0.99876214     1.04300
C285        C  0.99994469  0.74260972  0.09745602     0.95200
C286        C  0.00024375  0.74077682  0.40163157     0.94400
C287        C  0.06138744  0.77050202  0.00172510     0.86500
C288        C  0.43914725  0.71764995  0.50242719     0.92800
C289        C  0.02690199  0.64159544  0.24864443    -0.11300
C290        C  0.03590093  0.61277657  0.24918056    -0.12800
C291        C  0.13065247  0.53926285  0.25490169    -0.11300
C292        C  0.15969825  0.53247238  0.25502392    -0.12800
C293        C  0.22629834  0.89833905  0.00105649    -0.11300
C294        C  0.21594854  0.86989776  0.00139669    -0.12800
C295        C  0.09423820  0.78413944  0.00269849    -0.11300
C296        C  0.12279221  0.79300716  0.00302454    -0.12800
C297        C  0.50998617  0.97734631  0.24788296    -0.14400
C298        C  0.02050568  0.49061433  0.24992567    -0.29600
H299        H  0.53373796  0.96449492  0.24594881     0.14600
H300        H  0.03244686  0.46623582  0.25181403     0.15200
C301        C  0.38801905  0.96335045  0.25177070    -0.11300
C302        C  0.35927619  0.97244008  0.25279971    -0.12800
C303        C  0.46108711  0.86661578  0.24673387    -0.11300
C304        C  0.46814356  0.83722540  0.24718020    -0.12800
C305        C  0.23391415  0.74797602  0.99981639    -0.14400
C306        C  0.26713679  0.74990983  0.99810547    -0.29600
H307        H  0.22087307  0.72238780  0.49830947     0.14600
H308        H  0.27919906  0.77425482  0.99749285     0.15200
C309        C  0.37646896  0.69898782  0.50365850    -0.11300
C310        C  0.40557271  0.70586820  0.50351486    -0.12800
C311        C  0.27339044  0.59874844  0.99968245    -0.11300
C312        C  0.28194165  0.62769531  0.99864879    -0.12800
C313        C  0.34190669  0.69623530  0.99559792     0.82200
N314        N  0.32098781  0.72132314  0.50215336    -0.76100
C315        C  0.28755951  0.71745037  0.50085169     0.84700
N316        N  0.27435334  0.68592828  0.50023774    -0.76000
C317        C  0.29471582  0.65867487  0.50095677     0.84700
N318        N  0.32870382  0.66505219  0.99631869    -0.77800
C319        C  0.46025211  0.89954551  0.75183461     0.82200
N320        N  0.48622567  0.92105820  0.75099638    -0.76100
C321        C  0.48102262  0.95458979  0.74939386     0.84700
N322        N  0.44933376  0.96660929  0.74863718    -0.76000
C323        C  0.42320451  0.94494826  0.74949827     0.84700
N324        N  0.42873896  0.91141420  0.75106366    -0.77800
C325        C  0.20460039  0.83567851  0.49845305     0.82200
N326        N  0.22508154  0.80850143  0.49885343    -0.76100
C327        C  0.21210846  0.77690909  0.49821152     0.84700
N328        N  0.17874455  0.77279591  0.49718695    -0.76000
C329        C  0.15819905  0.79963184  0.49676299     0.84700
N330        N  0.17107075  0.83117298  0.49743396    -0.77800
O331        O  0.30367526  0.95404377  0.74906541    -0.71000
O332        O  0.20802811  0.98405580  0.75259429    -0.71900
O333        O  0.25436256  0.96908655  0.67653812    -0.60600
O334        O  0.25693178  0.96802739  0.82526872    -0.69000
O335        O  0.25994972  0.52528547  0.82455453    -0.68500
O336        O  0.26394408  0.52250354  0.67548765    -0.59800
O337        O  0.21582417  0.54298906  0.74641923    -0.72300
O338        O  0.30799433  0.50490013  0.75364097    -0.71100
Cu339      Cu  0.25518997  0.96691840  0.75088503     1.04600
Cu340      Cu  0.26268312  0.52574572  0.74997949     1.04300
C341        C  0.32665181  0.97616795  0.74887438     0.95200
C342        C  0.19111102  0.52294981  0.74606954     0.94400
C343        C  0.26204222  0.99577885  0.65290992     0.86500
C344        C  0.26510983  0.99447795  0.84872594     0.92800
O345        O  0.23629833  0.55020445  0.49965552    -0.71000
O346        O  0.21826681  0.95569032  0.50146104    -0.71900
O347        O  0.22671627  0.50070764  0.57501839    -0.60600
O348        O  0.22162535  0.50714751  0.92601055    -0.69000
O349        O  0.29026357  0.98322531  0.92665264    -0.68500
O350        O  0.28683052  0.98777033  0.57442042    -0.59800
O351        O  0.27093585  0.93929128  0.50026054    -0.72300
O352        O  0.28766065  0.54177641  0.00010571    -0.71100
Cu353      Cu  0.22506552  0.50083301  0.50038503     1.04600
Cu354      Cu  0.29131100  0.98210944  0.00156027     1.04300
C355        C  0.26633606  0.56048794  0.49974006     0.95200
C356        C  0.23939091  0.93192538  0.00079210     0.94400
C357        C  0.26086141  0.99580487  0.59875443     0.86500
C358        C  0.26492333  0.99399647  0.90295095     0.92800
C359        C  0.09379051  0.54798006  0.74345330     0.82200
N360        N  0.07388922  0.52062637  0.74361513    -0.76100
C361        C  0.04044936  0.52396118  0.74577281     0.84700
N362        N  0.02682641  0.55529847  0.74766650    -0.76000
C363        C  0.04683914  0.58289609  0.74735074     0.84700
N364        N  0.08032420  0.57909881  0.74538344    -0.77800
O365        O  0.47576243  0.73080979  0.67530026    -0.71000
O366        O  0.47627736  0.72966066  0.82457560    -0.71900
O367        O  0.46174466  0.77788630  0.75083010    -0.60600
O368        O  0.48993698  0.68177447  0.74919161    -0.69000
O369        O  0.04002903  0.70227333  0.75034655    -0.68500
O370        O  0.01844352  0.80123930  0.74822139    -0.59800
O371        O  0.02922014  0.75214803  0.82396218    -0.72300
O372        O  0.02953643  0.75110500  0.67472824    -0.71100
Cu373      Cu  0.47408519  0.72940653  0.74998062     1.04600
Cu374      Cu  0.03120432  0.75213375  0.74932883     1.04300
C375        C  0.00254869  0.74527609  0.65150603     0.95200
C376        C  0.00218539  0.74650644  0.84738431     0.94400
C377        C  0.48381305  0.80079015  0.75116989     0.86500
C378        C  0.01649481  0.68076834  0.75047647     0.92800
O379        O  0.01373220  0.71904869  0.57482044    -0.71000
O380        O  0.01292476  0.72044271  0.92456153    -0.71900
O381        O  0.05767425  0.73872605  0.00078535    -0.60600
O382        O  0.46314936  0.69676129  0.50147158    -0.69000
O383        O  0.44438595  0.74917973  0.50214161    -0.68500
O384        O  0.03644898  0.79018100  0.00167101    -0.59800
O385        O  0.49288970  0.76503227  0.92410097    -0.72300
O386        O  0.49211623  0.76614755  0.57482245    -0.71100
Cu387      Cu  0.01266840  0.71730729  0.99891476     1.04600
Cu388      Cu  0.49018506  0.76843229  0.50009518     1.04300
C389        C  0.00257505  0.74479072  0.59731450     0.95200
C390        C  0.00217077  0.74629513  0.90161463     0.94400
C391        C  0.06163268  0.77000047  0.49672210     0.86500
C392        C  0.43994297  0.71740993  0.99749555     0.92800
C393        C  0.02441882  0.64542034  0.75025442    -0.11300
C394        C  0.03307175  0.61633193  0.74924407    -0.12800
C395        C  0.12906954  0.54347777  0.74290805    -0.11300
C396        C  0.15799866  0.53591805  0.74380887    -0.12800
C397        C  0.22896542  0.89772733  0.50004888    -0.11300
C398        C  0.21835211  0.86924800  0.49931680    -0.12800
C399        C  0.09441757  0.78440116  0.49596003    -0.11300
C400        C  0.12293024  0.79384251  0.49604220    -0.12800
C401        C  0.51021004  0.97700335  0.74864494    -0.14400
C402        C  0.01996942  0.49308668  0.74663378    -0.29600
H403        H  0.53458536  0.96539568  0.75016857     0.14600
H404        H  0.03266032  0.46922133  0.74274444     0.15200
C405        C  0.38960090  0.95717138  0.74873453    -0.11300
C406        C  0.36089615  0.96592719  0.74847463    -0.12800
C407        C  0.46644647  0.86429450  0.75254309    -0.11300
C408        C  0.47374595  0.83509387  0.75220216    -0.12800
C409        C  0.23327533  0.74660522  0.49880690    -0.14400
C410        C  0.26651844  0.74785796  0.50004768    -0.29600
H411        H  0.22196488  0.72357093  0.00038470     0.14600
H412        H  0.27894402  0.77206050  0.50056059     0.15200
C413        C  0.37708697  0.70045579  0.99544996    -0.11300
C414        C  0.40633829  0.70621852  0.99615856    -0.12800
C415        C  0.27329212  0.59593816  0.49975756    -0.11300
C416        C  0.28139087  0.62513744  0.50018944    -0.12800
C417        C  0.85436930  0.18709050  0.49718124     0.82200
N418        N  0.82239620  0.21615951  0.00432711    -0.76100
C419        C  0.79106183  0.20301136  0.00433759     0.84700
N420        N  0.78702047  0.16933185  0.00368465    -0.76000
C421        C  0.81357669  0.14860014  0.00312355     0.84700
N422        N  0.84154670  0.15560750  0.49801298    -0.77800
C423        C  0.95633048  0.40450310  0.24861919     0.82200
N424        N  0.97758933  0.43105248  0.24845867    -0.76100
C425        C  0.96544837  0.46292876  0.24684008     0.84700
N426        N  0.93221004  0.46790520  0.24539793    -0.76000
C427        C  0.91106496  0.44154345  0.24556201     0.84700
N428        N  0.92305205  0.40980284  0.24722414    -0.77800
C429        C  0.71030172  0.33395185  0.00407156     0.82200
N430        N  0.73658461  0.31291100  0.00529064    -0.76100
C431        C  0.73207185  0.27927508  0.00535563     0.84700
N432        N  0.70055660  0.26655029  0.00419976    -0.76000
C433        C  0.67395273  0.28774088  0.00303493     0.84700
N434        N  0.67898193  0.32144034  0.00291989    -0.77800
O435        O  0.78981158  0.44933876  0.24694414    -0.71000
O436        O  0.69779852  0.48652945  0.25295277    -0.71900
O437        O  0.74194611  0.46968349  0.17522707    -0.60600
O438        O  0.74526479  0.46693474  0.32458339    -0.69000
O439        O  0.76443721  0.01832017  0.32440637    -0.68500
O440        O  0.76598443  0.01744942  0.17502632    -0.59800
O441        O  0.71649845  0.02931706  0.24864396    -0.72300
O442        O  0.81432204  0.00714317  0.25072430    -0.71100
Cu443      Cu  0.74300907  0.46628596  0.24988161     1.04600
Cu444      Cu  0.76574723  0.01993918  0.24966346     1.04300
C445        C  0.81443771  0.46943940  0.24623509     0.95200
C446        C  0.69486301  0.00589733  0.24867882     0.94400
C447        C  0.75148628  0.49611202  0.15229487     0.86500
C448        C  0.75625862  0.49237052  0.34809517     0.92800
O449        O  0.75318110  0.04685841  0.00061532    -0.71000
O450        O  0.71070805  0.45570713  0.00114518    -0.71900
O451        O  0.73480688  0.00016157  0.07519078    -0.60600
O452        O  0.73021489  0.99929630  0.42443216    -0.69000
O453        O  0.78422704  0.48713097  0.42511360    -0.68500
O454        O  0.77756116  0.49003923  0.07443716    -0.59800
O455        O  0.76394481  0.44098999  0.00135746    -0.72300
O456        O  0.79602107  0.03098042  0.50116890    -0.71100
Cu457      Cu  0.73221849  0.00079739  0.00110161     1.04600
Cu458      Cu  0.78657576  0.48607491  0.49983999     1.04300
C459        C  0.78468629  0.05088458  0.00013522     0.95200
C460        C  0.74609152  0.42598282  0.49975996     0.94400
C461        C  0.75098132  0.49693377  0.09805445     0.86500
C462        C  0.75682982  0.49188919  0.40231409     0.92800
C463        C  0.59816230  0.03859783  0.24982541     0.82200
N464        N  0.57092822  0.01826041  0.24984748    -0.76100
C465        C  0.53980206  0.03182189  0.25052562     0.84700
N466        N  0.53624815  0.06559784  0.25116898    -0.76000
C467        C  0.56314571  0.08596410  0.25106395     0.84700
N468        N  0.59415351  0.07250162  0.25038671    -0.77800
O469        O  0.98654535  0.23662296  0.17572073    -0.71000
O470        O  0.98694122  0.23533873  0.32426640    -0.71900
O471        O  0.96971568  0.28373652  0.25069656    -0.60600
O472        O  0.00464034  0.18914458  0.24929262    -0.69000
O473        O  0.55764634  0.20934126  0.24948456    -0.68500
O474        O  0.52205620  0.30371085  0.24981583    -0.59800
O475        O  0.54004773  0.25612324  0.32454481    -0.72300
O476        O  0.53887737  0.25669710  0.17491233    -0.71100
Cu477      Cu  0.98512986  0.23556362  0.25001143     1.04600
Cu478      Cu  0.54149187  0.25717456  0.24966460     1.04300
C479        C  0.51300181  0.24630332  0.15227328     0.95200
C480        C  0.51418582  0.24631579  0.34805321     0.94400
C481        C  0.99035032  0.30809416  0.25120516     0.86500
C482        C  0.53744098  0.18467885  0.25050641     0.92800
O483        O  0.51726923  0.21886146  0.07481610    -0.71000
O484        O  0.52298068  0.22010465  0.42611503    -0.71900
O485        O  0.56822795  0.23787631  0.50196298    -0.60600
O486        O  0.96838026  0.20558996  0.00192166    -0.69000
O487        O  0.95482178  0.25951315  0.00083655    -0.68500
O488        O  0.54939626  0.29027276  0.50058902    -0.59800
O489        O  0.00143705  0.26820819  0.42567601    -0.72300
O490        O  0.00491038  0.27300738  0.07379172    -0.71100
Cu491      Cu  0.52249788  0.21848226  0.50095053     1.04600
Cu492      Cu  0.00352045  0.27377835  0.99917843     1.04300
C493        C  0.51227527  0.24622259  0.09811476     0.95200
C494        C  0.51387425  0.24629092  0.40224803     0.94400
C495        C  0.57599259  0.25968237  0.99988285     0.86500
C496        C  0.95113151  0.21513603  0.49781669     0.92800
C497        C  0.55001410  0.15088129  0.25087268    -0.11300
C498        C  0.55812206  0.12170693  0.25112017    -0.12800
C499        C  0.63135862  0.02448353  0.24908392    -0.11300
C500        C  0.65992165  0.01470158  0.24864940    -0.12800
C501        C  0.72353640  0.39864086  0.00263222    -0.11300
C502        C  0.71614366  0.36938391  0.00340480    -0.12800
C503        C  0.61118649  0.26713120  0.00057095    -0.11300
C504        C  0.64028146  0.27501422  0.00164706    -0.12800
C505        C  0.98734214  0.49261125  0.24706449    -0.14400
C506        C  0.50937443  0.01090018  0.25040577    -0.29600
H507        H  0.97550583  0.51704280  0.24518959     0.14600
H508        H  0.48562311  0.02375572  0.25224816     0.15200
C509        C  0.87609649  0.44773936  0.24477217    -0.11300
C510        C  0.84747747  0.45634127  0.24490993    -0.12800
C511        C  0.96880773  0.37073185  0.25023899    -0.11300
C512        C  0.97843553  0.34206967  0.25110730    -0.12800
C513        C  0.76202844  0.25776951  0.00609271    -0.14400
C514        C  0.76088609  0.22424812  0.00453435    -0.29600
H515        H  0.73357879  0.21451974  0.49996264     0.14600
H516        H  0.73694813  0.21171822  0.00316530     0.15200
C517        C  0.88957940  0.19258831  0.49683988    -0.11300
C518        C  0.91825908  0.20125681  0.49702411    -0.12800
C519        C  0.79836034  0.08423822  0.00097780    -0.11300
C520        C  0.80774886  0.11300797  0.00201985    -0.12800
C521        C  0.84936781  0.19547018  0.00374473     0.82200
N522        N  0.83384076  0.21394988  0.49714536    -0.76100
C523        C  0.80046106  0.20978918  0.49789933     0.84700
N524        N  0.78752540  0.17818354  0.49871241    -0.76000
C525        C  0.80808870  0.15108123  0.49874833     0.84700
N526        N  0.84483148  0.16159853  0.00312463    -0.77800
C527        C  0.95897442  0.40401159  0.75207803     0.82200
N528        N  0.97937904  0.43134485  0.75143939    -0.76100
C529        C  0.96622041  0.46286647  0.75369804     0.84700
N530        N  0.93288543  0.46668761  0.75655256    -0.76000
C531        C  0.91253701  0.43971603  0.75705634     0.84700
N532        N  0.92550538  0.40832715  0.75475028    -0.77800
C533        C  0.71800722  0.32788790  0.49994237     0.82200
N534        N  0.73826707  0.30058437  0.49940749    -0.76100
C535        C  0.72495911  0.26911884  0.49973656     0.84700
N536        N  0.69150257  0.26534629  0.50060541    -0.76000
C537        C  0.67135901  0.29252930  0.50113533     0.84700
N538        N  0.68457473  0.32376880  0.50079110    -0.77800
O539        O  0.79095267  0.44723012  0.75479977    -0.71000
O540        O  0.69896003  0.48421314  0.74681817    -0.71900
O541        O  0.74686440  0.46482151  0.67615837    -0.60600
O542        O  0.74246488  0.46783119  0.82550657    -0.69000
O543        O  0.76309452  0.01728911  0.82438470    -0.68500
O544        O  0.76109045  0.01739428  0.67518343    -0.59800
O545        O  0.71398755  0.03163067  0.75108497    -0.72300
O546        O  0.80977153  0.00293643  0.74847794    -0.71100
Cu547      Cu  0.74414435  0.46419446  0.75088815     1.04600
Cu548      Cu  0.76249381  0.01921605  0.74976272     1.04300
C549        C  0.81562761  0.46725958  0.75559171     0.95200
C550        C  0.69117544  0.00937127  0.75181245     0.94400
C551        C  0.75777134  0.49035897  0.65237094     0.86500
C552        C  0.75174833  0.49439762  0.84792956     0.92800
O553        O  0.74329566  0.04726507  0.49966948    -0.71000
O554        O  0.72170279  0.44642694  0.50021845    -0.71900
O555        O  0.72748980  0.99852354  0.57377833    -0.60600
O556        O  0.73262502  0.00049068  0.92678996    -0.69000
O557        O  0.77753682  0.48893871  0.92595219    -0.68500
O558        O  0.78502408  0.48593163  0.57459879    -0.59800
O559        O  0.77600479  0.43661456  0.49947971    -0.72300
O560        O  0.80421054  0.02573387  0.99920303    -0.71100
Cu561      Cu  0.72695260  0.99939027  0.49898986     1.04600
Cu562      Cu  0.77914536  0.48910452  0.00017525     1.04300
C563        C  0.77424287  0.05426405  0.50041621     0.95200
C564        C  0.73316271  0.43321647  0.00166205     0.94400
C565        C  0.75784075  0.49031569  0.59817757     0.86500
C566        C  0.75099368  0.49553038  0.90211055     0.92800
C567        C  0.59492403  0.04176714  0.74937154     0.82200
N568        N  0.56857844  0.02041972  0.74838077    -0.76100
C569        C  0.53702946  0.03274880  0.74691618     0.84700
N570        N  0.53215458  0.06636057  0.74647962    -0.76000
C571        C  0.55834138  0.08764849  0.74750859     0.84700
N572        N  0.58974108  0.07540456  0.74898941    -0.77800
O573        O  0.98338538  0.23429711  0.67550635    -0.71000
O574        O  0.98350853  0.23518885  0.82471138    -0.71900
O575        O  0.96980709  0.28364572  0.74929321    -0.60600
O576        O  0.99731023  0.18600310  0.75096451    -0.69000
O577        O  0.55355389  0.21028703  0.74986556    -0.68500
O578        O  0.51937223  0.30495605  0.75040052    -0.59800
O579        O  0.53649495  0.25733884  0.82470022    -0.72300
O580        O  0.53642493  0.25758901  0.67548506    -0.71100
Cu581      Cu  0.98163922  0.23425695  0.75012732     1.04600
Cu582      Cu  0.53828543  0.25825264  0.75008609     1.04300
C583        C  0.51049100  0.24806603  0.65225229     0.95200
C584        C  0.51077841  0.24714922  0.84812151     0.94400
C585        C  0.99198107  0.30660048  0.74845794     0.86500
C586        C  0.53285990  0.18605535  0.74922749     0.92800
O587        O  0.52070531  0.22098809  0.57564358    -0.71000
O588        O  0.51648418  0.21928739  0.92548293    -0.71900
O589        O  0.56616514  0.22921203  0.99974898    -0.60600
O590        O  0.97626617  0.19568315  0.49832436    -0.69000
O591        O  0.95465353  0.24695614  0.49819154    -0.68500
O592        O  0.55499266  0.28372449  0.99975777    -0.59800
O593        O  0.00333661  0.27108099  0.92465401    -0.72300
O594        O  0.99914315  0.26637251  0.57429581    -0.71100
Cu595      Cu  0.51731844  0.21708580  0.00017405     1.04600
Cu596      Cu  0.99956395  0.26889413  0.49997926     1.04300
C597        C  0.51082547  0.24735008  0.59805937     0.95200
C598        C  0.51090248  0.24672871  0.90232494     0.94400
C599        C  0.57342040  0.26941133  0.50156002     0.86500
C600        C  0.94628834  0.22857770  0.00181120     0.92800
C601        C  0.54469725  0.15220867  0.74840920    -0.11300
C602        C  0.55242308  0.12305548  0.74779360    -0.12800
C603        C  0.62835836  0.02899230  0.75091057    -0.11300
C604        C  0.65688658  0.01960753  0.75176769    -0.12800
C605        C  0.73952889  0.39050873  0.49962432    -0.11300
C606        C  0.73146626  0.36132658  0.49967804    -0.12800
C607        C  0.60697744  0.28120502  0.50195144    -0.11300
C608        C  0.63610512  0.28794254  0.50179843    -0.12800
C609        C  0.98695388  0.49353746  0.75264451    -0.14400
C610        C  0.50770576  0.01047994  0.74652604    -0.29600
H611        H  0.97432399  0.51743408  0.75659580     0.14600
H612        H  0.48334754  0.02211852  0.74503643     0.15200
C613        C  0.87733054  0.44515275  0.75831757    -0.11300
C614        C  0.84869972  0.45396327  0.75782856    -0.12800
C615        C  0.97248315  0.37037143  0.74988321    -0.11300
C616        C  0.98200622  0.34150749  0.74870908    -0.12800
C617        C  0.74597611  0.23870442  0.49925503    -0.14400
C618        C  0.77923430  0.24003453  0.49806713    -0.29600
H619        H  0.78599261  0.27023971  0.00747046     0.14600
H620        H  0.79159010  0.26424247  0.49734270     0.15200
C621        C  0.88281672  0.20924660  0.00333459    -0.11300
C622        C  0.91140477  0.21915072  0.00272978    -0.12800
C623        C  0.78481085  0.08884189  0.50017684    -0.11300
C624        C  0.79466540  0.11751928  0.49962223    -0.12800
C625        C  0.84415027  0.69073502  0.50379306     0.82200
N626        N  0.82375644  0.72088856  0.99995213    -0.76100
C627        C  0.79040392  0.71650048  0.00081395     0.84700
N628        N  0.77766146  0.68483637  0.99993270    -0.76000
C629        C  0.79832490  0.65793333  0.99816943     0.84700
N630        N  0.83128293  0.65928894  0.50386524    -0.77800
C631        C  0.95755900  0.90171305  0.25208243     0.82200
N632        N  0.98403296  0.92250667  0.25099863    -0.76100
C633        C  0.97983557  0.95615265  0.25017130     0.84700
N634        N  0.94840843  0.96914798  0.25040718    -0.76000
C635        C  0.92160284  0.94815152  0.25151102     0.84700
N636        N  0.92634953  0.91443771  0.25231618    -0.77800
C637        C  0.70229653  0.83103696  0.00314355     0.82200
N638        N  0.72434197  0.80512795  0.00302846    -0.76100
C639        C  0.71307972  0.77287775  0.00320182     0.84700
N640        N  0.68003053  0.76689063  0.00341734    -0.76000
C641        C  0.65815185  0.79254026  0.00354966     0.84700
N642        N  0.66917254  0.82467002  0.00336331    -0.77800
O643        O  0.80237664  0.95278886  0.25174379    -0.71000
O644        O  0.70390058  0.97512126  0.24903070    -0.71900
O645        O  0.75432218  0.96296541  0.17599812    -0.60600
O646        O  0.75222062  0.96395977  0.32477214    -0.69000
O647        O  0.76629974  0.51848028  0.32495426    -0.68500
O648        O  0.76229595  0.52150068  0.17601324    -0.59800
O649        O  0.71787262  0.53847549  0.25403821    -0.72300
O650        O  0.81023915  0.50114850  0.24711753    -0.71100
Cu651      Cu  0.75276781  0.96178988  0.25041216     1.04600
Cu652      Cu  0.76490667  0.52173526  0.25053755     1.04300
C653        C  0.82372372  0.97656608  0.25143562     0.95200
C654        C  0.69337824  0.51814752  0.25450884     0.94400
C655        C  0.76053165  0.98998492  0.15220643     0.86500
C656        C  0.75793797  0.99119296  0.34790501     0.92800
O657        O  0.73674585  0.55262354  0.99872470    -0.71000
O658        O  0.71549369  0.95280977  0.00172702    -0.71900
O659        O  0.72419290  0.50421802  0.07496942    -0.60600
O660        O  0.72982692  0.49648039  0.42619643    -0.69000
O661        O  0.78287885  0.98269054  0.42634048    -0.68500
O662        O  0.78580346  0.97886115  0.07430551    -0.59800
O663        O  0.76683514  0.93249441  0.99982370    -0.72300
O664        O  0.79340736  0.53603034  0.50036331    -0.71100
Cu665      Cu  0.72206492  0.50449568  0.99992887     1.04600
Cu666      Cu  0.78339098  0.98196156  0.50090464     1.04300
C667        C  0.76739004  0.56071283  0.99846777     0.95200
C668        C  0.73607471  0.92700552  0.49893970     0.94400
C669        C  0.76047801  0.98964311  0.09805484     0.86500
C670        C  0.75699412  0.99117156  0.40207075     0.92800
C671        C  0.59605203  0.54323744  0.25668058     0.82200
N672        N  0.57538991  0.51643840  0.25529310    -0.76100
C673        C  0.54204154  0.52087799  0.25355934     0.84700
N674        N  0.52940461  0.55258980  0.25319898    -0.76000
C675        C  0.55015549  0.57949596  0.25463039     0.84700
N676        N  0.58348261  0.57474841  0.25627151    -0.77800
O677        O  0.97298748  0.73310359  0.17471524    -0.71000
O678        O  0.97321635  0.73186282  0.32455253    -0.71900
O679        O  0.95877988  0.77998022  0.25041763    -0.60600
O680        O  0.98654200  0.68376441  0.24898893    -0.69000
O681        O  0.53928631  0.69963792  0.25078659    -0.68500
O682        O  0.50963426  0.79603553  0.24857086    -0.59800
O683        O  0.52446558  0.74838775  0.32403808    -0.72300
O684        O  0.52506659  0.74768229  0.17527421    -0.71100
Cu685      Cu  0.97102008  0.73153931  0.24964864     1.04600
Cu686      Cu  0.52645899  0.74850781  0.24966619     1.04300
C687        C  0.49878578  0.73970845  0.15172782     0.95200
C688        C  0.49809576  0.74040084  0.34759212     0.94400
C689        C  0.98085078  0.80285348  0.25086305     0.86500
C690        C  0.51745032  0.67638921  0.25123363     0.92800
O691        O  0.50922718  0.71362890  0.07480111    -0.71000
O692        O  0.50854319  0.71436107  0.42490006    -0.71900
O693        O  0.55668362  0.73215522  0.49706507    -0.60600
O694        O  0.96597777  0.69974910  0.99720242    -0.69000
O695        O  0.94510920  0.75136656  0.99874866    -0.68500
O696        O  0.53744539  0.78437537  0.49790431    -0.59800
O697        O  0.98967874  0.76693160  0.42385365    -0.72300
O698        O  0.98979111  0.76894621  0.07493854    -0.71100
Cu699      Cu  0.51064177  0.71246194  0.49928100     1.04600
Cu700      Cu  0.98992110  0.77239048  0.00021466     1.04300
C701        C  0.49933571  0.73978319  0.09753024     0.95200
C702        C  0.49850003  0.74044470  0.40179328     0.94400
C703        C  0.56204865  0.76287984  0.00156186     0.86500
C704        C  0.94149716  0.71698077  0.50239525     0.92800
C705        C  0.52782305  0.64187246  0.25250242    -0.11300
C706        C  0.53716597  0.61310044  0.25361633    -0.12800
C707        C  0.63118173  0.53796731  0.25723119    -0.11300
C708        C  0.66014494  0.53065267  0.25651019    -0.12800
C709        C  0.72298221  0.89410053  0.00182924    -0.11300
C710        C  0.71377040  0.86525178  0.00252874    -0.12800
C711        C  0.59517538  0.77560506  0.00261885    -0.11300
C712        C  0.62348158  0.78509855  0.00326148    -0.12800
C713        C  0.01005035  0.97731619  0.24912492    -0.14400
C714        C  0.52034432  0.49097120  0.25164050    -0.29600
H715        H  0.03389650  0.96460425  0.24905260     0.14600
H716        H  0.53208213  0.46646524  0.25294223     0.15200
C717        C  0.88797832  0.96100975  0.25164437    -0.11300
C718        C  0.85885364  0.96880265  0.25169058    -0.12800
C719        C  0.96310342  0.86631938  0.25230545    -0.11300
C720        C  0.97065567  0.83716235  0.25182553    -0.12800
C721        C  0.73558133  0.74374565  0.00256544    -0.14400
C722        C  0.76872445  0.74634617  0.00237577    -0.29600
H723        H  0.72368081  0.71689292  0.49683239     0.14600
H724        H  0.78033353  0.77091699  0.00301376     0.15200
C725        C  0.87945193  0.69587777  0.50413152    -0.11300
C726        C  0.90843532  0.70351756  0.50368922    -0.12800
C727        C  0.77649740  0.59551612  0.99779475    -0.11300
C728        C  0.78529865  0.62442328  0.99770066    -0.12800
C729        C  0.84429680  0.69404035  0.99816310     0.82200
N730        N  0.82362524  0.71766330  0.50261321    -0.76100
C731        C  0.79020697  0.71345473  0.50153425     0.84700
N732        N  0.77732588  0.68181701  0.50163684    -0.76000
C733        C  0.79786306  0.65474912  0.50285403     0.84700
N734        N  0.83164893  0.66258933  0.99729204    -0.77800
C735        C  0.95968683  0.90910723  0.74772373     0.82200
N736        N  0.98141893  0.93523861  0.74833908    -0.76100
C737        C  0.96994743  0.96739920  0.74892259     0.84700
N738        N  0.93676148  0.97310608  0.74890680    -0.76000
C739        C  0.91504863  0.94716203  0.74825122     0.84700
N740        N  0.92648203  0.91514583  0.74767767    -0.77800
C741        C  0.70382582  0.82947584  0.49596392     0.82200
N742        N  0.72525381  0.80304661  0.49677330    -0.76100
C743        C  0.71334129  0.77102750  0.49623067     0.84700
N744        N  0.68012125  0.76577419  0.49495410    -0.76000
C745        C  0.65872752  0.79191947  0.49419705     0.84700
N746        N  0.67052548  0.82382713  0.49476435    -0.77800
O747        O  0.79408625  0.94949420  0.74888832    -0.71000
O748        O  0.69837273  0.97819223  0.75214063    -0.71900
O749        O  0.74528081  0.96398540  0.67584911    -0.60600
O750        O  0.74785386  0.96371246  0.82516071    -0.69000
O751        O  0.76269420  0.51969682  0.82377657    -0.68500
O752        O  0.76784911  0.51639247  0.67521080    -0.59800
O753        O  0.71875828  0.53626551  0.74490642    -0.72300
O754        O  0.81142547  0.49899884  0.75394545    -0.71100
Cu755      Cu  0.74578386  0.96199396  0.75054974     1.04600
Cu756      Cu  0.76593560  0.51967789  0.74942991     1.04300
C757        C  0.81687134  0.97173199  0.74840596     0.95200
C758        C  0.69437222  0.51577345  0.74445719     0.94400
C759        C  0.75309930  0.99066840  0.65216663     0.86500
C760        C  0.75625352  0.99035309  0.84809004     0.92800
O761        O  0.73915728  0.54604888  0.50122479    -0.71000
O762        O  0.71429434  0.95029995  0.49825260    -0.71900
O763        O  0.73060399  0.49520634  0.57510208    -0.60600
O764        O  0.72416329  0.50309331  0.92491958    -0.69000
O765        O  0.78375572  0.97959819  0.92443993    -0.68500
O766        O  0.78029889  0.98240510  0.57537804    -0.59800
O767        O  0.76700945  0.93404510  0.50032445    -0.72300
O768        O  0.79008586  0.53835496  0.99895993    -0.71100
Cu769      Cu  0.72841971  0.49641277  0.50070198     1.04600
Cu770      Cu  0.78695527  0.97844569  0.99933461     1.04300
C771        C  0.76913733  0.55659467  0.50107335     0.95200
C772        C  0.73552010  0.92791868  0.00105532     0.94400
C773        C  0.75358307  0.99047285  0.59792569     0.86500
C774        C  0.75767356  0.99012931  0.90228305     0.92800
C775        C  0.59689335  0.54042208  0.74194461     0.82200
N776        N  0.57567832  0.51401745  0.74406572    -0.76100
C777        C  0.54242413  0.51923601  0.74683271     0.84700
N778        N  0.53053747  0.55117610  0.74751035    -0.76000
C779        C  0.55182639  0.57754806  0.74535697     0.84700
N780        N  0.58498237  0.57215089  0.74268912    -0.77800
O781        O  0.97552744  0.73959772  0.67494578    -0.71000
O782        O  0.97525528  0.74044980  0.82412281    -0.71900
O783        O  0.96461555  0.78907519  0.74852110    -0.60600
O784        O  0.98618491  0.69023818  0.75039403    -0.69000
O785        O  0.54294378  0.69737847  0.74869992    -0.68500
O786        O  0.51471007  0.79371165  0.75056549    -0.59800
O787        O  0.52931668  0.74515725  0.82410871    -0.72300
O788        O  0.52875468  0.74644677  0.67502507    -0.71100
Cu789      Cu  0.97352232  0.73939251  0.74951952     1.04600
Cu790      Cu  0.53082513  0.74619382  0.74957747     1.04300
C791        C  0.50214847  0.73904671  0.65183277     0.95200
C792        C  0.50277413  0.73769939  0.84764919     0.94400
C793        C  0.98809273  0.81060057  0.74804884     0.86500
C794        C  0.52076550  0.67450264  0.74858715     0.92800
O795        O  0.51136694  0.71392360  0.57375038    -0.71000
O796        O  0.51200063  0.71274766  0.92609961    -0.71900
O797        O  0.55718790  0.73122601  0.00198132    -0.60600
O798        O  0.96664292  0.69744909  0.50287352    -0.69000
O799        O  0.94509161  0.74872609  0.50059988    -0.68500
O800        O  0.53792264  0.78347330  0.00016957    -0.59800
O801        O  0.99121194  0.77167695  0.92534646    -0.72300
O802        O  0.99117063  0.76990137  0.57316676    -0.71100
Cu803      Cu  0.51124349  0.71159504  0.00050203     1.04600
Cu804      Cu  0.98981884  0.77047627  0.49842489     1.04300
C805        C  0.50192926  0.73979489  0.59762069     0.95200
C806        C  0.50262333  0.73856887  0.90179597     0.94400
C807        C  0.56165733  0.76379768  0.49667880     0.86500
C808        C  0.94120459  0.71967657  0.99762267     0.92800
C809        C  0.53063738  0.64002568  0.74760773    -0.11300
C810        C  0.53954613  0.61122829  0.74657275    -0.12800
C811        C  0.63195125  0.53472388  0.74081360    -0.11300
C812        C  0.66103014  0.52790411  0.74167763    -0.12800
C813        C  0.72557826  0.89235811  0.49797167    -0.11300
C814        C  0.71620135  0.86349470  0.49699313    -0.12800
C815        C  0.59505070  0.77638620  0.49495174    -0.11300
C816        C  0.62368897  0.78523937  0.49407852    -0.12800
C817        C  0.99271922  0.99650501  0.74954717    -0.14400
C818        C  0.51983129  0.49007665  0.74949102    -0.29600
H819        H  0.98171477  0.02138276  0.75045174     0.14600
H820        H  0.53079855  0.46518109  0.74791137     0.15200
C821        C  0.88003313  0.95393116  0.74808799    -0.11300
C822        C  0.85104652  0.96151430  0.74804055    -0.12800
C823        C  0.97161626  0.87498472  0.74739146    -0.11300
C824        C  0.98001381  0.84584609  0.74748202    -0.12800
C825        C  0.73544310  0.74143221  0.49758943    -0.14400
C826        C  0.76864407  0.74351591  0.49995982    -0.29600
H827        H  0.72414039  0.71908907  0.00193826     0.14600
H828        H  0.78051969  0.76799833  0.50067258     0.15200
C829        C  0.87934977  0.69919307  0.99736491    -0.11300
C830        C  0.90823011  0.70665064  0.99713071    -0.12800
C831        C  0.77603574  0.59207419  0.50181875    -0.11300
C832        C  0.78456183  0.62116348  0.50243228    -0.12800
loop_ 
_geom_bond_atom_site_label_1 
_geom_bond_atom_site_label_2 
_geom_bond_distance 
_geom_bond_site_symmetry_2 
_ccdc_geom_bond_type 
C1            N6   1.357       .  A
C1          N106   1.353       .  A
C1          C101   1.434       .  S
N2            C3   1.367       .  A
N2          C105   1.365   1_556  A
C3            N4   1.354       .  A
C3           C98   1.484       .  S
N4            C5   1.354   1_556  A
C5          N110   1.359       .  A
C5          C104   1.437       .  S
N6          C109   1.359       .  A
C7            N8   1.362       .  A
C7           N12   1.360       .  A
C7           C95   1.443       .  S
N8            C9   1.363       .  A
C9           N10   1.354       .  A
C9           C89   1.478       .  S
N10          C11   1.353       .  A
C11          N12   1.358       .  A
C11          C93   1.434       .  S
C13          N14   1.351       .  A
C13          N18   1.358       .  A
C13          C86   1.434       .  S
N14          C15   1.354       .  A
C15          N16   1.368       .  A
C15          C97   1.482       .  S
N16          C17   1.367       .  A
C17          N18   1.360       .  A
C17          C88   1.452       .  S
O19         Cu27   2.007       .  S
O19          C29   1.275       .  A
O20         Cu27   1.990       .  S
O20         C238   1.274       .  A
O21         Cu27   2.012       .  S
O21          C31   1.277       .  A
O22         Cu27   2.013       .  S
O22          C32   1.277       .  A
O23         Cu28   2.010       .  S
O23         C240   1.277   1_545  A
O24         Cu28   2.009       .  S
O24         C239   1.277   1_545  A
O25         Cu28   2.026       .  S
O25          C30   1.279       .  A
O26         Cu28   2.031       .  S
O26         C237   1.279   1_545  A
Cu27       Cu236   2.381       .  S
Cu28       Cu235   2.377   1_545  S
C29          C94   1.434       .  S
C29         O234   1.277       .  A
C30          C84   1.449       .  S
C30         O228   1.278   1_545  A
C31         O232   1.276       .  A
C31          C45   1.459       .  S
C32         O231   1.276       .  A
C32          C46   1.460       .  S
O33         Cu41   2.011       .  S
O33          C43   1.277       .  A
O34        Cu249   1.998       .  S
O34         C148   1.274   1_554  A
O35         Cu41   2.003       .  S
O35         C253   1.275   1_545  A
O36        Cu145   2.017       .  S
O36         C254   1.278   1_545  A
O37         Cu42   2.010       .  S
O37          C46   1.276       .  A
O38        Cu146   1.998   1_554  S
O38          C45   1.274       .  A
O39        Cu146   2.018       .  S
O39         C148   1.279       .  A
O40        Cu250   2.028   1_545  S
O40         C147   1.279       .  A
Cu41        O242   2.021   1_545  S
Cu41        O140   2.003   1_554  S
Cu41       Cu354   2.379   1_545  S
Cu42        O142   2.009       .  S
Cu42        O143   2.023       .  S
Cu42        O248   2.015       .  S
Cu42       Cu353   2.379       .  S
C43         C103   1.437       .  S
C43         O144   1.276       .  A
C44         C189   1.441       .  S
C44         O138   1.277       .  A
C44         O143   1.278       .  A
C45         O243   1.279       .  A
C46         O244   1.277       .  A
C47          N48   1.365       .  A
C47          N52   1.360       .  A
C47          C83   1.449       .  S
N48          C49   1.367       .  A
C49          N50   1.353       .  A
C49          C90   1.481       .  S
N50          C51   1.352       .  A
C51          N52   1.357       .  A
C51          C82   1.432       .  S
O53         Cu61   2.001       .  S
O53         C479   1.275       .  A
O54         Cu61   2.002       .  S
O54         C480   1.275       .  A
O55         Cu61   2.024       .  S
O55          C65   1.279       .  A
O56         Cu61   2.017       .  S
O56         C482   1.278       .  A
O57         Cu62   2.003       .  S
O57          C66   1.275       .  A
O58         Cu62   2.006       .  S
O58         C481   1.275   1_455  A
O59         Cu62   2.017       .  S
O59          C64   1.278       .  A
O60         Cu62   2.018       .  S
O60          C63   1.278       .  A
Cu61       Cu478   2.379       .  S
Cu62       Cu477   2.380   1_455  S
C63         O469   1.275   1_455  A
C63          C77   1.459       .  S
C64         O470   1.275   1_455  A
C64          C78   1.458       .  S
C65          C96   1.443       .  S
C65         O474   1.277       .  A
C66          C81   1.433       .  S
C66         O472   1.278       .  A
O67        Cu179   2.009       .  S
O67          C77   1.277       .  A
O68         Cu75   2.016       .  S
O68          C78   1.278       .  A
O69         Cu75   1.999       .  S
O69         C183   1.275       .  A
O70        Cu595   2.021       .  S
O70         C184   1.278       .  A
O71         Cu76   2.038       .  S
O71         C184   1.280       .  A
O72        Cu596   2.012   1_455  S
O72         C183   1.277       .  A
O73        Cu180   2.004       .  S
O73         C494   1.276       .  A
O74         Cu76   2.006       .  S
O74         C493   1.276       .  A
Cu75        O171   2.017       .  S
Cu75        O590   2.011   1_455  S
Cu75       Cu596   2.380   1_455  S
Cu76        O592   2.026   1_554  S
Cu76        O177   2.006   1_554  S
Cu76       Cu595   2.377       .  S
C77         O490   1.276       .  A
C78         O489   1.275       .  A
C79          C87   1.452       .  S
C79         O173   1.278       .  A
C79         O176   1.280       .  A
C80         C102   1.434       .  S
C80         O174   1.275       .  A
C80         O175   1.277       .  A
C81          C82   1.204       .  T
C83          C84   1.214       .  T
C85         C148   1.434       .  S
C85          C86   1.205       .  T
C87          C88   1.216       .  T
C89          H91   1.086       .  S
C89         C714   1.341       .  D
C90          H92   1.086   1_455  S
C90         C713   1.337   1_545  D
C93          C94   1.205       .  T
C95          C96   1.210       .  T
C97         H203   1.087       .  S
C97          C98   1.339       .  D
C98         H100   1.087       .  S
H99         C201   1.086       .  S
C101        C102   1.205       .  T
C103        C104   1.207       .  T
C105        N110   1.361       .  A
C105        C205   1.451       .  S
N106        C107   1.355       .  A
C107        N108   1.365       .  A
C107        C202   1.479       .  S
N108        C109   1.363       .  A
C109        C208   1.445       .  S
C111        N112   1.359       .  A
C111        N116   1.359       .  A
C111        C199   1.438       .  S
N112        C113   1.361       .  A
C113        N114   1.356       .  A
C113        C193   1.477       .  S
N114        C115   1.355       .  A
C115        N116   1.358       .  A
C115        C197   1.437       .  S
C117        N118   1.361       .  A
C117        N122   1.358       .  A
C117        C190   1.441       .  S
N118        C119   1.364       .  A
C119        N120   1.355       .  A
C119        C201   1.480       .  S
N120        C121   1.354       .  A
C121        N122   1.356       .  A
C121        C192   1.433       .  S
O123       Cu131   2.015       .  S
O123        C133   1.277       .  A
O124       Cu131   2.001       .  S
O124        C342   1.276       .  A
O125       Cu131   2.008       .  S
O125        C135   1.276       .  A
O126       Cu131   2.007       .  S
O126        C136   1.276       .  A
O127       Cu132   2.016       .  S
O127        C344   1.278   1_545  A
O128       Cu132   2.015       .  S
O128        C343   1.278   1_545  A
O129       Cu132   2.006       .  S
O129        C134   1.275       .  A
O130       Cu132   2.009       .  S
O130        C341   1.276   1_545  A
Cu131      Cu340   2.380       .  S
Cu132      Cu339   2.379   1_545  S
C133        C198   1.436       .  S
C133        O338   1.276       .  A
C134        C188   1.437       .  S
C134        O332   1.278   1_545  A
C135        O336   1.277       .  A
C135        C149   1.459       .  S
C136        O335   1.277       .  A
C136        C150   1.458       .  S
O137       Cu145   2.016       .  S
O137        C147   1.276       .  A
O138       Cu353   2.011       .  S
O139       Cu145   2.016       .  S
O139        C357   1.278   1_545  A
O140        C358   1.276   1_545  A
O141       Cu146   1.996       .  S
O141        C150   1.274       .  A
O142        C149   1.276       .  A
O144       Cu354   2.014   1_545  S
Cu145       O346   2.020   1_545  S
Cu145      Cu250   2.378   1_545  S
Cu146       O352   2.013   1_556  S
Cu146      Cu249   2.380   1_556  S
C147        C207   1.444       .  S
C149        O347   1.277       .  A
C150        O348   1.279       .  A
C151        N152   1.354       .  A
C151        N156   1.359       .  A
C151        C187   1.438       .  S
N152        C153   1.355       .  A
C153        N154   1.364       .  A
C153        C194   1.479   1_545  S
N154        C155   1.361       .  A
C155        N156   1.361       .  A
C155        C186   1.446       .  S
O157       Cu165   2.010       .  S
O157        C583   1.277       .  A
O158       Cu165   2.009       .  S
O158        C584   1.277       .  A
O159       Cu165   2.013       .  S
O159        C169   1.277       .  A
O160       Cu165   2.004       .  S
O160        C586   1.276       .  A
O161       Cu166   2.021       .  S
O161        C170   1.278       .  A
O162       Cu166   2.028       .  S
O162        C585   1.278   1_455  A
O163       Cu166   2.010       .  S
O163        C168   1.277       .  A
O164       Cu166   2.010       .  S
O164        C167   1.277       .  A
Cu165      Cu582   2.380       .  S
Cu166      Cu581   2.377   1_455  S
C167        O573   1.276   1_455  A
C167        C181   1.459       .  S
C168        O574   1.276   1_455  A
C168        C182   1.459       .  S
C169        C200   1.438       .  S
C169        O578   1.277       .  A
C170        C185   1.446       .  S
C170        O576   1.278   1_455  A
O171        C181   1.278       .  A
O172       Cu179   2.010   1_556  S
O172        C182   1.277       .  A
O173       Cu179   2.027   1_556  S
O174       Cu491   2.004       .  S
O175       Cu180   2.013       .  S
O176       Cu492   2.034       .  S
O177        C598   1.276       .  A
O178       Cu180   2.005       .  S
O178        C597   1.275       .  A
Cu179       O486   2.026   1_455  S
Cu179      Cu492   2.376   1_554  S
Cu180       O488   2.012       .  S
Cu180      Cu491   2.380       .  S
C181        O594   1.275   1_455  A
C182        O593   1.276       .  A
C183        C191   1.432       .  S
C184        C206   1.451       .  S
C185        C186   1.212       .  T
C187        C188   1.207       .  T
C189        C190   1.209       .  T
C191        C192   1.204       .  T
C193        H195   1.088       .  S
C193        C818   1.343       .  D
C194        H196   1.087       .  S
C194        C817   1.341   1_455  D
C197        C198   1.207       .  T
C199        C200   1.207       .  T
C201        C202   1.341       .  D
C202        H204   1.086       .  S
C205        C206   1.215       .  T
C207        C208   1.211       .  T
C209        N314   1.354       .  A
C209        N214   1.355       .  A
C209        C309   1.432       .  S
N210        C313   1.356       .  A
N210        C211   1.356       .  A
C211        N212   1.363       .  A
C211        C306   1.478       .  S
N212        C213   1.359       .  A
C213        N318   1.354       .  A
C213        C312   1.433       .  S
N214        C317   1.357       .  A
C215        N216   1.353       .  A
C215        N220   1.358       .  A
C215        C303   1.436       .  S
N216        C217   1.355       .  A
C217        N218   1.366       .  A
C217        C297   1.482       .  S
N218        C219   1.364       .  A
C219        N220   1.360       .  A
C219        C301   1.449       .  S
C221        N222   1.361       .  A
C221        N226   1.358       .  A
C221        C294   1.440       .  S
N222        C223   1.363       .  A
C223        N224   1.354       .  A
C223        C305   1.476   1_554  S
N224        C225   1.353       .  A
C225        N226   1.356       .  A
C225        C296   1.431       .  S
O227       Cu235   2.022       .  S
O227        C237   1.278       .  A
O228       Cu235   2.029       .  S
O229       Cu235   2.010       .  S
O229        C239   1.277       .  A
O230       Cu235   2.008       .  S
O230        C240   1.277       .  A
O231       Cu236   2.008       .  S
O232       Cu236   2.008       .  S
O233       Cu236   2.009       .  S
O233        C238   1.276       .  A
O234       Cu236   2.009       .  S
C237        C302   1.448       .  S
C238        C292   1.427       .  S
C239        C253   1.459       .  S
C240        C254   1.458       .  S
O241       Cu249   2.004       .  S
O241        C251   1.275       .  A
O242        C356   1.278       .  A
O243       Cu249   2.021       .  S
O244       Cu353   2.011       .  S
O245       Cu250   2.001       .  S
O245        C254   1.275       .  A
O246       Cu354   2.016       .  S
O246        C253   1.278       .  A
O247       Cu354   2.009       .  S
O247        C356   1.276       .  A
O248        C355   1.277       .  A
Cu249       O348   2.020   1_554  S
Cu250       O350   2.001       .  S
Cu250       O351   2.032       .  S
C251        C311   1.434   1_554  S
C251        O352   1.278       .  A
C252        C397   1.448       .  S
C252        O346   1.277       .  A
C252        O351   1.280       .  A
C255        N256   1.355       .  A
C255        N260   1.353       .  A
C255        C291   1.428       .  S
N256        C257   1.356       .  A
C257        N258   1.363       .  A
C257        C298   1.478       .  S
N258        C259   1.359       .  A
C259        N260   1.355       .  A
C259        C290   1.435       .  S
O261       Cu269   2.015       .  S
O261        C687   1.278       .  A
O262       Cu269   2.016       .  S
O262        C688   1.278       .  A
O263       Cu269   2.008       .  S
O263        C273   1.276       .  A
O264       Cu269   2.014       .  S
O264        C690   1.276       .  A
O265       Cu270   2.012       .  S
O265        C274   1.277       .  A
O266       Cu270   2.011       .  S
O266        C689   1.278   1_455  A
O267       Cu270   2.000       .  S
O267        C272   1.275   1_455  A
O268       Cu270   2.000       .  S
O268        C271   1.275   1_455  A
Cu269      Cu686   2.379       .  S
Cu270      Cu685   2.381   1_455  S
C271        O677   1.279       .  A
C271        C285   1.459       .  S
C272        O678   1.279       .  A
C272        C286   1.459   1_655  S
C273        C304   1.436       .  S
C273        O682   1.278       .  A
C274        C289   1.435       .  S
C274        O680   1.275   1_455  A
O275       Cu387   2.004   1_554  S
O275        C285   1.276   1_455  A
O276       Cu283   2.006       .  S
O276        C286   1.276       .  A
O277       Cu283   2.018       .  S
O277        C391   1.278       .  A
O278       Cu803   2.011   1_556  S
O278        C392   1.277       .  A
O279       Cu284   1.985       .  S
O279        C392   1.273       .  A
O280       Cu804   2.014   1_455  S
O280        C391   1.276       .  A
O281       Cu388   2.014       .  S
O281        C702   1.278       .  A
O282       Cu284   2.016   1_554  S
O282        C701   1.278       .  A
Cu283       O379   2.005       .  S
Cu283       O798   2.022   1_455  S
Cu283      Cu804   2.379   1_455  S
Cu284       O800   1.992   1_556  S
Cu284       O385   2.014       .  S
Cu284      Cu803   2.382   1_556  S
C285        O698   1.278       .  A
C286        O697   1.278   1_455  A
C287        C295   1.431       .  S
C287        O381   1.276       .  A
C287        O384   1.275       .  A
C288        C310   1.432       .  S
C288        O382   1.277       .  A
C288        O383   1.275       .  A
C289        C290   1.205       .  T
C291        C292   1.201       .  T
C293        C356   1.439       .  S
C293        C294   1.208       .  T
C295        C296   1.203       .  T
C297        H299   1.087       .  S
C297        C506   1.341   1_565  D
C298        H300   1.086       .  S
C298        C505   1.340   1_455  D
C301        C302   1.214       .  T
C303        C304   1.206       .  T
C305        H411   1.086   1_556  S
C305        C306   1.341       .  D
C306        H308   1.086       .  S
H307        C409   1.087       .  S
C309        C310   1.204       .  T
C311        C312   1.205       .  T
C313        N318   1.352       .  A
C313        C413   1.427       .  S
N314        C315   1.356       .  A
C315        N316   1.365       .  A
C315        C410   1.480       .  S
N316        C317   1.362       .  A
C317        C416   1.441       .  S
C319        N320   1.353       .  A
C319        N324   1.355       .  A
C319        C407   1.428       .  S
N320        C321   1.354       .  A
C321        N322   1.364       .  A
C321        C401   1.477       .  S
N322        C323   1.361       .  A
C323        N324   1.357       .  A
C323        C405   1.439       .  S
C325        N326   1.362       .  A
C325        N330   1.363       .  A
C325        C398   1.449       .  S
N326        C327   1.364       .  A
C327        N328   1.354       .  A
C327        C409   1.479       .  S
N328        C329   1.353       .  A
C329        N330   1.361       .  A
C329        C400   1.439       .  S
O331       Cu339   2.020       .  S
O331        C341   1.278       .  A
O332       Cu339   2.020       .  S
O333       Cu339   2.003       .  S
O333        C343   1.275       .  A
O334       Cu339   2.004       .  S
O334        C344   1.275       .  A
O335       Cu340   2.010       .  S
O336       Cu340   2.010       .  S
O337       Cu340   2.011       .  S
O337        C342   1.276       .  A
O338       Cu340   2.008       .  S
C341        C406   1.439       .  S
C342        C396   1.432       .  S
C343        C357   1.458       .  S
C344        C358   1.459       .  S
O345       Cu353   2.020       .  S
O345        C355   1.277       .  A
O347       Cu353   2.010       .  S
O349       Cu354   2.017   1_556  S
O349        C358   1.278       .  A
O350        C357   1.275       .  A
C355        C415   1.441       .  S
C359        N360   1.353       .  A
C359        N364   1.356       .  A
C359        C395   1.432       .  S
N360        C361   1.355       .  A
C361        N362   1.366       .  A
C361        C402   1.482       .  S
N362        C363   1.364       .  A
C363        N364   1.358       .  A
C363        C394   1.446       .  S
O365       Cu373   2.011       .  S
O365        C791   1.277       .  A
O366       Cu373   2.010       .  S
O366        C792   1.277       .  A
O367       Cu373   1.997       .  S
O367        C377   1.274       .  A
O368       Cu373   2.005       .  S
O368        C794   1.275       .  A
O369       Cu374   2.020       .  S
O369        C378   1.278       .  A
O370       Cu374   2.025       .  S
O370        C793   1.278   1_455  A
O371       Cu374   2.010       .  S
O371        C376   1.277       .  A
O372       Cu374   2.010       .  S
O372        C375   1.277       .  A
Cu373      Cu790   2.381       .  S
Cu374      Cu789   2.378   1_455  S
C375        O781   1.277   1_455  A
C375        C389   1.459       .  S
C376        O782   1.277   1_455  A
C376        C390   1.459       .  S
C377        C408   1.428       .  S
C377        O786   1.276       .  A
C378        C393   1.446       .  S
C378        O784   1.278   1_455  A
O379        C389   1.276       .  A
O380       Cu387   2.004       .  S
O380        C390   1.276       .  A
O381       Cu387   2.004   1_554  S
O382       Cu699   2.013       .  S
O383       Cu388   1.998       .  S
O384       Cu700   2.004   1_455  S
O385        C806   1.278       .  A
O386       Cu388   2.014       .  S
O386        C805   1.278       .  A
Cu387       O694   2.007   1_455  S
Cu387      Cu700   2.381   1_456  S
Cu388       O696   2.007       .  S
Cu388      Cu699   2.380       .  S
C389        O802   1.277   1_455  A
C390        O801   1.278   1_455  A
C391        C399   1.440       .  S
C392        C414   1.426       .  S
C393        C394   1.212       .  T
C395        C396   1.204       .  T
C397        C398   1.214       .  T
C399        C400   1.208       .  T
C401        H403   1.086       .  S
C401        C610   1.340   1_565  D
C402        H404   1.086       .  S
C402        C609   1.339   1_455  D
C405        C406   1.208       .  T
C407        C408   1.201       .  T
C409        C410   1.340       .  D
C410        H412   1.087       .  S
C413        C414   1.200       .  T
C415        C416   1.209       .  T
C417        N522   1.354       .  A
C417        N422   1.358       .  A
C417        C517   1.435       .  S
N418        C521   1.365       .  A
N418        C419   1.366       .  A
C419        N420   1.353       .  A
C419        C514   1.482       .  S
N420        C421   1.352       .  A
C421        N526   1.361       .  A
C421        C520   1.439       .  S
N422        C525   1.360       .  A
C423        N424   1.361       .  A
C423        N428   1.358       .  A
C423        C511   1.438       .  S
N424        C425   1.363       .  A
C425        N426   1.354       .  A
C425        C505   1.476       .  S
N426        C427   1.353       .  A
C427        N428   1.356       .  A
C427        C509   1.430       .  S
C429        N430   1.352       .  A
C429        N434   1.357       .  A
C429        C502   1.433       .  S
N430        C431   1.354       .  A
C431        N432   1.367       .  A
C431        C513   1.481       .  S
N432        C433   1.365       .  A
C433        N434   1.359       .  A
C433        C504   1.448       .  S
O435       Cu443   2.004       .  S
O435        C445   1.275       .  A
O436       Cu443   1.994       .  S
O436        C654   1.275       .  A
O437       Cu443   2.014       .  S
O437        C447   1.278       .  A
O438       Cu443   2.013       .  S
O438        C448   1.278       .  A
O439       Cu444   2.013       .  S
O439        C656   1.277   1_545  A
O440       Cu444   2.012       .  S
O440        C655   1.277   1_545  A
O441       Cu444   2.019       .  S
O441        C446   1.277       .  A
O442       Cu444   2.022       .  S
O442        C653   1.277   1_545  A
Cu443      Cu652   2.381       .  S
Cu444      Cu651   2.377   1_545  S
C445        C510   1.430       .  S
C445        O650   1.276       .  A
C446        C500   1.451       .  S
C446        O644   1.280   1_545  A
C447        O648   1.276       .  A
C447        C461   1.460       .  S
C448        O647   1.276       .  A
C448        C462   1.459       .  S
O449       Cu457   2.021       .  S
O449        C459   1.279       .  A
O450       Cu665   1.999   1_554  S
O450        C564   1.274       .  A
O451       Cu457   1.997       .  S
O451        C669   1.274   1_545  A
O452       Cu561   2.011       .  S
O452        C670   1.277       .  A
O453       Cu458   2.014       .  S
O453        C462   1.277       .  A
O454       Cu562   2.000       .  S
O454        C461   1.275       .  A
O455       Cu562   2.014       .  S
O455        C564   1.278       .  A
O456       Cu666   2.020   1_545  S
O456        C563   1.278       .  A
Cu457       O658   2.029   1_545  S
Cu457       O556   2.000   1_554  S
Cu457      Cu770   2.379   1_544  S
Cu458       O558   2.013       .  S
Cu458       O559   2.018       .  S
Cu458       O664   2.011       .  S
Cu458      Cu769   2.379       .  S
C459        C519   1.440       .  S
C459        O560   1.275   1_554  A
C460        C605   1.439       .  S
C460        O554   1.277       .  A
C460        O559   1.277       .  A
C461        O659   1.279       .  A
C462        O660   1.276       .  A
C463        N464   1.364       .  A
C463        N468   1.362       .  A
C463        C499   1.451       .  S
N464        C465   1.366       .  A
C465        N466   1.355       .  A
C465        C506   1.482       .  S
N466        C467   1.354       .  A
C467        N468   1.360       .  A
C467        C498   1.440       .  S
O469       Cu477   2.000       .  S
O470       Cu477   2.000       .  S
O471       Cu477   2.020       .  S
O471        C481   1.278       .  A
O472       Cu477   2.012   1_455  S
O473       Cu478   2.016       .  S
O473        C482   1.277       .  A
O474       Cu478   2.015       .  S
O475       Cu478   2.016       .  S
O475        C480   1.278       .  A
O476       Cu478   2.015       .  S
O476        C479   1.278       .  A
C479        C493   1.458       .  S
C480        C494   1.459       .  S
C481        C512   1.438       .  S
C482        C497   1.440       .  S
O483       Cu595   2.010       .  S
O483        C493   1.277       .  A
O484       Cu491   2.015       .  S
O484        C494   1.278       .  A
O485       Cu491   1.998       .  S
O485        C599   1.275       .  A
O486        C600   1.278       .  A
O487       Cu492   2.042   1_654  S
O487        C600   1.281       .  A
O488        C599   1.277       .  A
O489       Cu596   2.001   1_455  S
O490       Cu492   2.009   1_554  S
Cu491       O587   2.014       .  S
Cu492       O593   2.009       .  S
C495        C503   1.448   1_556  S
C495        O589   1.278       .  A
C495        O592   1.279       .  A
C496        C518   1.435       .  S
C496        O590   1.276       .  A
C496        O591   1.277       .  A
C497        C498   1.209       .  T
C499        C500   1.215       .  T
C501        C564   1.432       .  S
C501        C502   1.204       .  T
C503        C504   1.214       .  T
C505        H507   1.086       .  S
C506        H508   1.087       .  S
C509        C510   1.203       .  T
C511        C512   1.207       .  T
C513        H619   1.086       .  S
C513        C514   1.339       .  D
C514        H516   1.087       .  S
H515        C617   1.086       .  S
C517        C518   1.206       .  T
C519        C520   1.208       .  T
C521        N526   1.363       .  A
C521        C621   1.455       .  S
N522        C523   1.355       .  A
C523        N524   1.364       .  A
C523        C618   1.479       .  S
N524        C525   1.362       .  A
C525        C624   1.443       .  S
C527        N528   1.365       .  A
C527        N532   1.361       .  A
C527        C615   1.450       .  S
N528        C529   1.366       .  A
C529        N530   1.353       .  A
C529        C609   1.481       .  S
N530        C531   1.352       .  A
C531        N532   1.358       .  A
C531        C613   1.435       .  S
C533        N534   1.361       .  A
C533        N538   1.357       .  A
C533        C606   1.439       .  S
N534        C535   1.364       .  A
C535        N536   1.356       .  A
C535        C617   1.480       .  S
N536        C537   1.355       .  A
C537        N538   1.355       .  A
C537        C608   1.432       .  S
O539       Cu547   2.006       .  S
O539        C549   1.275       .  A
O540       Cu547   1.991       .  S
O540        C758   1.274       .  A
O541       Cu547   2.014       .  S
O541        C551   1.278       .  A
O542       Cu547   2.015       .  S
O542        C552   1.278       .  A
O543       Cu548   2.010       .  S
O543        C760   1.277   1_545  A
O544       Cu548   2.010       .  S
O544        C759   1.277   1_545  A
O545       Cu548   2.016       .  S
O545        C550   1.277       .  A
O546       Cu548   2.012       .  S
O546        C757   1.277   1_545  A
Cu547      Cu756   2.380       .  S
Cu548      Cu755   2.379   1_545  S
C549        C614   1.435       .  S
C549        O754   1.278       .  A
C550        C604   1.440       .  S
C550        O748   1.277   1_545  A
C551        O752   1.276       .  A
C551        C565   1.458       .  S
C552        O751   1.276       .  A
C552        C566   1.459       .  S
O553       Cu561   2.020   1_545  S
O553        C563   1.277       .  A
O554       Cu769   2.012       .  S
O555       Cu561   2.013       .  S
O555        C773   1.277       .  A
O556        C774   1.274   1_545  A
O557       Cu562   1.999   1_556  S
O557        C566   1.275       .  A
O558        C565   1.277       .  A
O560       Cu770   2.010   1_545  S
Cu561       O762   2.023       .  S
Cu561      Cu666   2.378       .  S
Cu562       O768   2.013   1_554  S
Cu562      Cu665   2.380   1_554  S
C563        C623   1.443       .  S
C565        O763   1.276       .  A
C566        O764   1.279       .  A
C567        N568   1.361       .  A
C567        N572   1.358       .  A
C567        C603   1.441       .  S
N568        C569   1.363       .  A
C569        N570   1.355       .  A
C569        C610   1.477       .  S
N570        C571   1.354       .  A
C571        N572   1.357       .  A
C571        C602   1.432       .  S
O573       Cu581   2.009       .  S
O574       Cu581   2.009       .  S
O575       Cu581   2.027       .  S
O575        C585   1.279       .  A
O576       Cu581   2.026       .  S
O577       Cu582   2.010       .  S
O577        C586   1.276       .  A
O578       Cu582   2.013       .  S
O579       Cu582   2.009       .  S
O579        C584   1.277       .  A
O580       Cu582   2.010       .  S
O580        C583   1.277       .  A
C583        C597   1.459       .  S
C584        C598   1.459       .  S
C585        C616   1.449       .  S
C586        C601   1.432       .  S
O587        C597   1.278       .  A
O588       Cu595   2.012   1_556  S
O588        C598   1.277       .  A
O589       Cu595   2.026   1_556  S
O591       Cu596   2.010       .  S
O594       Cu596   2.002       .  S
C599        C607   1.431       .  S
C600        C622   1.454       .  S
C601        C602   1.204       .  T
C603        C604   1.209       .  T
C605        C606   1.208       .  T
C607        C608   1.203       .  T
C609        H611   1.086       .  S
C610        H612   1.086       .  S
C613        C614   1.206       .  T
C615        C616   1.214       .  T
C617        C618   1.341       .  D
C618        H620   1.086       .  S
C621        C622   1.217       .  T
C623        C624   1.211       .  T
C625        N730   1.356       .  A
C625        N630   1.357       .  A
C625        C725   1.437       .  S
N626        C729   1.355       .  A
N626        C627   1.355   1_556  A
C627        N628   1.363   1_554  A
C627        C722   1.477       .  S
N628        C629   1.359       .  A
C629        N734   1.355       .  A
C629        C728   1.436       .  S
N630        C733   1.358       .  A
C631        N632   1.351       .  A
C631        N636   1.356       .  A
C631        C719   1.429       .  S
N632        C633   1.353       .  A
C633        N634   1.368       .  A
C633        C713   1.481   1_655  S
N634        C635   1.366       .  A
C635        N636   1.358       .  A
C635        C717   1.448       .  S
C637        N638   1.363       .  A
C637        N642   1.358       .  A
C637        C710   1.441       .  S
N638        C639   1.364       .  A
C639        N640   1.352       .  A
C639        C721   1.474       .  S
N640        C641   1.351       .  A
C641        N642   1.356       .  A
C641        C712   1.428       .  S
O643       Cu651   2.031       .  S
O643        C653   1.280       .  A
O644       Cu651   2.039       .  S
O645       Cu651   2.004       .  S
O645        C655   1.275       .  A
O646       Cu651   2.004       .  S
O646        C656   1.276       .  A
O647       Cu652   2.007       .  S
O648       Cu652   2.009       .  S
O649       Cu652   2.011       .  S
O649        C654   1.277       .  A
O650       Cu652   2.005       .  S
C653        C718   1.449       .  S
C654        C708   1.430       .  S
C655        C669   1.457       .  S
C656        C670   1.458       .  S
O657       Cu665   2.008       .  S
O657        C667   1.276       .  A
O658        C772   1.280       .  A
O659       Cu665   2.021   1_554  S
O660       Cu769   2.006       .  S
O661       Cu666   2.007       .  S
O661        C670   1.276       .  A
O662       Cu770   2.018   1_554  S
O662        C669   1.279       .  A
O663       Cu770   2.004       .  S
O663        C772   1.275   1_556  A
O664        C771   1.277       .  A
Cu665       O764   2.021       .  S
Cu666       O766   2.008       .  S
Cu666       O767   2.022       .  S
C667        C727   1.436       .  S
C667        O768   1.277       .  A
C668        C813   1.445       .  S
C668        O762   1.278       .  A
C668        O767   1.278       .  A
C671        N672   1.355       .  A
C671        N676   1.355       .  A
C671        C707   1.431       .  S
N672        C673   1.356       .  A
C673        N674   1.364       .  A
C673        C714   1.479       .  S
N674        C675   1.361       .  A
C675        N676   1.356       .  A
C675        C706   1.439       .  S
O677       Cu685   2.019       .  S
O678       Cu685   2.018       .  S
O679       Cu685   1.994       .  S
O679        C689   1.274       .  A
O680       Cu685   2.006       .  S
O681       Cu686   2.017       .  S
O681        C690   1.278       .  A
O682       Cu686   2.014       .  S
O683       Cu686   2.003       .  S
O683        C688   1.275       .  A
O684       Cu686   2.003       .  S
O684        C687   1.276       .  A
C687        C701   1.459       .  S
C688        C702   1.459       .  S
C689        C720   1.429       .  S
C690        C705   1.439       .  S
O691       Cu803   2.003       .  S
O691        C701   1.275       .  A
O692       Cu699   2.005       .  S
O692        C702   1.276       .  A
O693       Cu699   2.014       .  S
O693        C807   1.278       .  A
O694        C808   1.276       .  A
O695       Cu700   1.990   1_556  S
O695        C808   1.274       .  A
O696        C807   1.275       .  A
O697       Cu804   2.013       .  S
O698       Cu700   2.015       .  S
Cu699       O795   2.006       .  S
Cu700       O801   2.016   1_554  S
C703        C711   1.428       .  S
C703        O797   1.277       .  A
C703        O800   1.273       .  A
C704        C726   1.436       .  S
C704        O798   1.278       .  A
C704        O799   1.275       .  A
C705        C706   1.208       .  T
C707        C708   1.203       .  T
C709        C772   1.440       .  S
C709        C710   1.209       .  T
C711        C712   1.201       .  T
C713        H715   1.086       .  S
C714        H716   1.086       .  S
C717        C718   1.214       .  T
C719        C720   1.202       .  T
C721        H827   1.086       .  S
C721        C722   1.339       .  D
C722        H724   1.086       .  S
H723        C825   1.087       .  S
C725        C726   1.206       .  T
C727        C728   1.206       .  T
C729        N734   1.354       .  A
C729        C829   1.427       .  S
N730        C731   1.357       .  A
C731        N732   1.364       .  A
C731        C826   1.481       .  S
N732        C733   1.361       .  A
C733        C832   1.443       .  S
C735        N736   1.361       .  A
C735        N740   1.359       .  A
C735        C823   1.444       .  S
N736        C737   1.364       .  A
C737        N738   1.356       .  A
C737        C817   1.479       .  S
N738        C739   1.355       .  A
C739        N740   1.358       .  A
C739        C821   1.436       .  S
C741        N742   1.363       .  A
C741        N746   1.360       .  A
C741        C814   1.446       .  S
N742        C743   1.364       .  A
C743        N744   1.355       .  A
C743        C825   1.479       .  S
N744        C745   1.353       .  A
C745        N746   1.358       .  A
C745        C816   1.436       .  S
O747       Cu755   2.009       .  S
O747        C757   1.276       .  A
O748       Cu755   2.017       .  S
O749       Cu755   2.012       .  S
O749        C759   1.277       .  A
O750       Cu755   2.011       .  S
O750        C760   1.277       .  A
O751       Cu756   2.005       .  S
O752       Cu756   2.004       .  S
O753       Cu756   2.016       .  S
O753        C758   1.278       .  A
O754       Cu756   2.013       .  S
C757        C822   1.436       .  S
C758        C812   1.430       .  S
C759        C773   1.460       .  S
C760        C774   1.460       .  S
O761       Cu769   2.026       .  S
O761        C771   1.278       .  A
O763       Cu769   2.005       .  S
O765       Cu770   2.020       .  S
O765        C774   1.279       .  A
O766        C773   1.277       .  A
C771        C831   1.442       .  S
C775        N776   1.357       .  A
C775        N780   1.354       .  A
C775        C811   1.431       .  S
N776        C777   1.358       .  A
C777        N778   1.361       .  A
C777        C818   1.478       .  S
N778        C779   1.358       .  A
C779        N780   1.355       .  A
C779        C810   1.432       .  S
O781       Cu789   2.008       .  S
O782       Cu789   2.010       .  S
O783       Cu789   2.014       .  S
O783        C793   1.277       .  A
O784       Cu789   2.026       .  S
O785       Cu790   2.008       .  S
O785        C794   1.277       .  A
O786       Cu790   2.004       .  S
O787       Cu790   2.007       .  S
O787        C792   1.276       .  A
O788       Cu790   2.008       .  S
O788        C791   1.276       .  A
C791        C805   1.459       .  S
C792        C806   1.458       .  S
C793        C824   1.443       .  S
C794        C809   1.432       .  S
O795        C805   1.276       .  A
O796       Cu803   2.003   1_556  S
O796        C806   1.275       .  A
O797       Cu803   2.010       .  S
O799       Cu804   2.000       .  S
O802       Cu804   2.012       .  S
C807        C815   1.436       .  S
C808        C830   1.426       .  S
C809        C810   1.204       .  T
C811        C812   1.203       .  T
C813        C814   1.212       .  T
C815        C816   1.206       .  T
C817        H819   1.087   1_565  S
C818        H820   1.088       .  S
C821        C822   1.206       .  T
C823        C824   1.211       .  T
C825        C826   1.341       .  D
C826        H828   1.087       .  S
C829        C830   1.201       .  T
C831        C832   1.210       .  T
