geometry optimzed in LAMMPS
_audit_creation_date              2020-12-01 
_audit_creation_method            'lammps2cif' 
_symmetry_space_group_name_H-M    'P1' 
_symmetry_Int_Tables_number       1 
_symmetry_cell_setting            triclinic 
loop_ 
_symmetry_equiv_pos_as_xyz 
  x,y,z 
_cell_length_a                    39.37752933 
_cell_length_b                    39.34946588357374 
_cell_length_c                    39.33859176307385 
_cell_angle_alpha                 89.76492622391537 
_cell_angle_beta                  89.6982023229926 
_cell_angle_gamma                 89.91082121436196 
loop_ 
_atom_site_label 
_atom_site_type_symbol 
_atom_site_fract_x 
_atom_site_fract_y 
_atom_site_fract_z 
_atom_site_charge 
C1          C  0.46341199  0.57253884  0.88999314     0.43000
N2          N  0.46520527  0.54378755  0.93629587     0.01900
C3          C  0.59916750  0.52975197  0.04729991    -0.06000
H4          H  0.62234350  0.49756770  0.91288340     0.07400
C5          C  0.54365409  0.40523667  0.92690785    -0.06300
Co6        Co  0.52759783  0.55949355  0.97617502     0.74200
N7          N  0.58439224  0.52034468  0.94495494    -0.25500
Co8        Co  0.57604250  0.48661400  0.98511907     0.74100
C9          C  0.57611175  0.41186293  0.91006448     0.43100
N10         N  0.46804623  0.44258865  0.94700265     0.01500
N11         N  0.56959976  0.44673062  0.95131308     0.01600
N12         N  0.56692468  0.57689705  0.04025966    -0.46400
H13         H  0.51400753  0.59918847  0.90157283     0.07400
N14         N  0.56620766  0.54832043  0.94230543     0.01900
N15         N  0.56587415  0.45312921  0.02482213     0.01600
C16         C  0.56970828  0.42326158  0.07031838     0.43200
N17         N  0.44966757  0.47033975  0.94352545    -0.25000
C18         C  0.48564164  0.59244156  0.03438677    -0.05900
N19         N  0.44691937  0.54872140  0.90855794    -0.46100
N20         N  0.58541776  0.44725957  0.05139715    -0.46300
C21         C  0.45219297  0.58635203  0.04921264     0.43000
N22         N  0.56185277  0.55462299  0.01572057     0.01900
N23         N  0.44623382  0.47759418  0.01766488    -0.25000
N24         N  0.49293098  0.56259617  0.93667294    -0.25500
N25         N  0.46489221  0.44990769  0.02105299     0.01500
H26         H  0.40969148  0.50179878  0.05103562     0.07400
H27         H  0.51878420  0.39647294  0.05965086     0.07500
N28         N  0.58030311  0.52683000  0.01921213    -0.25500
N29         N  0.54172733  0.42821425  0.95179523    -0.25100
N30         N  0.46048164  0.55076711  0.00942631     0.01900
C31         C  0.59797687  0.54906051  0.89783783     0.43300
C32         C  0.43055508  0.46753906  0.91570188    -0.06400
N33         N  0.53809222  0.43451087  0.02514602    -0.25100
H34         H  0.52435471  0.38681457  0.92099377     0.07400
N35         N  0.57345723  0.56601880  0.91471709    -0.46400
H36         H  0.41361336  0.48695540  0.90619097     0.07400
C37         C  0.43563583  0.45188451  0.06713024     0.43100
C38         C  0.49395356  0.58171896  0.90848082    -0.05900
Co39       Co  0.45438773  0.51071282  0.97657889     0.73800
N40         N  0.46299767  0.42062401  0.92220019    -0.46100
C41         C  0.58994302  0.56285984  0.06130589     0.43400
N42         N  0.43822603  0.56014648  0.03264004    -0.46100
Co43       Co  0.50288528  0.43790322  0.98627326     0.73900
C44         C  0.53820216  0.41471891  0.05291709    -0.06400
C45         C  0.60536230  0.51847517  0.91798780    -0.06000
N46         N  0.48842983  0.56910744  0.00988377    -0.25500
N47         N  0.59064609  0.43800684  0.92657426    -0.46300
H48         H  0.61674022  0.51089716  0.05681609     0.07400
C49         C  0.42647390  0.48075325  0.04550244    -0.06400
Cl50       Cl  0.51524163  0.49866433  0.98100582    -0.49400
C51         C  0.43950694  0.43447013  0.90143685     0.43200
H52         H  0.50462112  0.61109174  0.04095975     0.07400
N53         N  0.45971955  0.43420768  0.05037376    -0.46100
C54         C  0.43278618  0.92761351  0.54334160     0.43000
N55         N  0.46754165  0.96925978  0.53844720     0.01900
C56         C  0.50268941  0.06799892  0.39792921    -0.06000
H57         H  0.51225101  0.93067022  0.38069263     0.07400
C58         C  0.60422642  0.93174233  0.46477589    -0.06300
Co59       Co  0.45994598  0.00610494  0.47251941     0.74200
N60         N  0.49493698  0.96589426  0.41891652    -0.25500
Co61       Co  0.53426327  0.00039648  0.42571507     0.74100
C62         C  0.59588213  0.91463769  0.43312110     0.43100
N63         N  0.56932933  0.96264869  0.53745923     0.01500
N64         N  0.56790455  0.96107897  0.43581116     0.01600
N65         N  0.45461702  0.07025696  0.42929116    -0.46400
H66         H  0.40932012  0.93896075  0.49088076     0.07400
N67         N  0.46657003  0.96821083  0.43671183     0.01900
N68         N  0.57304740  0.03472201  0.43429786     0.01600
C69         C  0.60530942  0.07826859  0.43040681     0.43200
N70         N  0.54079563  0.96412568  0.55510832    -0.25000
C71         C  0.43715147  0.07279263  0.50756975    -0.05900
N72         N  0.45832376  0.94414125  0.55887004    -0.46100
N73         N  0.58084663  0.06069789  0.41446123    -0.46300
C74         C  0.44588423  0.09048198  0.53877098     0.43000
N75         N  0.47182555  0.04209680  0.43550033     0.01900
N76         N  0.54565495  0.03840233  0.55401584    -0.25000
N77         N  0.44987524  0.97009833  0.51007587    -0.25500
N78         N  0.57402423  0.03632144  0.53623103     0.01500
H79         H  0.52675180  0.07501791  0.58990955     0.07400
H80         H  0.62858640  0.06795415  0.48304611     0.07500
N81         N  0.50022027  0.04020724  0.41773343    -0.25500
N82         N  0.58552926  0.96021708  0.46423675    -0.25100
N83         N  0.47279967  0.04322307  0.53706521     0.01900
C84         C  0.45966794  0.92413252  0.40599368     0.43300
C85         C  0.53958757  0.93731366  0.57631406    -0.06400
N86         N  0.59058926  0.03433568  0.46274380    -0.25100
H87         H  0.62132297  0.92408829  0.48481644     0.07400
N88         N  0.44469520  0.94384187  0.42965119    -0.46400
H89         H  0.51934651  0.93171304  0.59414172     0.07400
C90         C  0.57996638  0.08150400  0.56592856     0.43100
C91         C  0.42717095  0.94476010  0.51080957    -0.05900
Co92       Co  0.50643817  0.00372046  0.54713300     0.73800
N93         N  0.58824149  0.93610453  0.54547126    -0.46100
C94         C  0.47233441  0.08801994  0.40581044     0.43400
N95         N  0.46825060  0.07077799  0.55566841    -0.46100
Co96       Co  0.58081591  0.99836192  0.50035186     0.73900
C97         C  0.61193855  0.06085308  0.46252943    -0.06400
C98         C  0.49288641  0.93885363  0.39844631    -0.06000
N99         N  0.45517865  0.04397489  0.50867002    -0.25500
N100        N  0.57351804  0.93436626  0.41633932    -0.46300
H101        H  0.52396213  0.07409579  0.38161503     0.07400
C102        C  0.54704462  0.06609865  0.57366802    -0.06400
Cl103      Cl  0.52036908  0.00210359  0.48644780    -0.49400
C104        C  0.57113501  0.91880275  0.56963581     0.43200
H105        H  0.42130601  0.08088334  0.48672566     0.07400
N106        N  0.59506427  0.06166644  0.54237351    -0.46100
C107        C  0.94064464  0.57372562  0.54786586     0.43000
N108        N  0.98328808  0.54072719  0.54071181     0.01900
C109        C  0.08619125  0.52880618  0.39907226    -0.06000
H110        H  0.95264732  0.51358563  0.37690307     0.07400
C111        C  0.95446455  0.41309269  0.45100554    -0.06300
Co112      Co  0.02125302  0.55782801  0.47719059     0.74200
N113        N  0.98476331  0.52789527  0.41846396    -0.25500
Co114      Co  0.02117244  0.48957586  0.42204689     0.74100
C115        C  0.93688332  0.42502886  0.42042585     0.43100
N116        N  0.98109284  0.43950283  0.52789052     0.01500
N117        N  0.98327774  0.45309182  0.42671485     0.01600
N118        N  0.08428014  0.57351851  0.43507154    -0.46400
H119        H  0.95293006  0.60361588  0.49902808     0.07400
N120        N  0.98451042  0.55386031  0.43953859     0.01900
N121        N  0.05763971  0.45165217  0.42734547     0.01600
C122        C  0.10231961  0.42092765  0.42083382     0.43200
N123        N  0.98132864  0.46584733  0.54852855    -0.25000
C124        C  0.08606649  0.57878376  0.51634217    -0.05900
N125        N  0.95736975  0.54696008  0.56135172    -0.46100
N126        N  0.08442478  0.44695991  0.40743625    -0.46300
C127        C  0.10386853  0.56639672  0.54622227     0.43000
N128        N  0.05852927  0.55259928  0.44020450     0.01900
N129        N  0.05515986  0.46407680  0.54957513    -0.25000
N130        N  0.98425157  0.56160074  0.51444400    -0.25500
N131        N  0.05598626  0.43816281  0.52851537     0.01500
H132        H  0.08757624  0.48046708  0.58983075     0.07400
H133        H  0.09023481  0.39020636  0.46943950     0.07500
N134        N  0.05891631  0.52636063  0.41946134    -0.25500
N135        N  0.98253545  0.43209079  0.45286454    -0.25100
N136        N  0.05777406  0.53835148  0.54073720     0.01900
C137        C  0.94170138  0.56270072  0.40705464     0.43300
C138        C  0.95382370  0.46454480  0.56860716    -0.06400
N139        N  0.05690222  0.43052163  0.45343977    -0.25100
H140        H  0.94728965  0.39454376  0.46985280     0.07400
N141        N  0.95916352  0.57521304  0.43367915    -0.46400
H142        H  0.94717996  0.48296751  0.58784450     0.07400
C143        C  0.10048244  0.43206893  0.55946335     0.43100
C144        C  0.95842642  0.58348547  0.51683359    -0.05900
Co145      Co  0.01929057  0.50232730  0.54584337     0.73800
N146        N  0.95402832  0.41996536  0.53255751    -0.46100
C147        C  0.10300551  0.55991616  0.40985243     0.43400
N148        N  0.08515906  0.54112137  0.55994848    -0.46100
Co149      Co  0.01914471  0.43392273  0.49074252     0.73900
C150        C  0.08395500  0.40990397  0.45137371    -0.06400
C151        C  0.95880141  0.53127770  0.39687348    -0.06000
N152        N  0.05805869  0.55966605  0.51474852    -0.25500
N153        N  0.95650330  0.44981413  0.40686777    -0.46300
H154        H  0.09314769  0.51120334  0.37918104     0.07400
C155        C  0.08165776  0.46205822  0.57047704    -0.06400
Cl156      Cl  0.02015821  0.49588732  0.48395036    -0.49400
C157        C  0.93565213  0.43414414  0.55797268     0.43200
H158        H  0.09389048  0.59768593  0.49790146     0.07400
N159        N  0.08297847  0.41855704  0.53325933    -0.46100
C160        C  0.70881085  0.35506995  0.33429487     0.03700
C161        C  0.69047040  0.36670234  0.30614872    -0.12500
C162        C  0.66136483  0.34928609  0.29573769     0.01200
C163        C  0.65010869  0.32099293  0.31420456    -0.11000
C164        C  0.66863908  0.30886087  0.34202779     0.03700
C165        C  0.69799872  0.32608792  0.35203386    -0.10400
H166        H  0.69952896  0.38841397  0.29169772     0.09300
H167        H  0.62759156  0.30755551  0.30599506     0.06800
H168        H  0.71332810  0.31617304  0.37262891     0.06600
C169        C  0.71694080  0.65086605  0.32432971     0.03700
C170        C  0.70104836  0.63980252  0.29470606    -0.12500
C171        C  0.67127914  0.65571171  0.28338969     0.01200
C172        C  0.65750585  0.68288379  0.30191680    -0.11000
C173        C  0.67373890  0.69440043  0.33137867     0.03700
C174        C  0.70294363  0.67766075  0.34291095    -0.10400
H175        H  0.71242115  0.61953668  0.27990083     0.09300
H176        H  0.63537976  0.69620345  0.29237996     0.06800
H177        H  0.71565908  0.68641158  0.36562784     0.06600
C178        C  0.65546404  0.35550282  0.67416094     0.03700
C179        C  0.68590434  0.37074728  0.66317074    -0.12500
C180        C  0.70296815  0.35860825  0.63420636     0.01200
C181        C  0.69019918  0.33011988  0.61718024    -0.11000
C182        C  0.65994157  0.31483591  0.62794243     0.03700
C183        C  0.64224862  0.32813885  0.65574373    -0.10400
H184        H  0.69698424  0.39120960  0.67770490     0.09300
H185        H  0.70433253  0.31919032  0.59616896     0.06800
H186        H  0.61922678  0.31566211  0.66440866     0.06600
C187        C  0.34985657  0.71735667  0.30726878     0.03700
C188        C  0.36433254  0.70333487  0.27796214    -0.12500
C189        C  0.35050215  0.67412469  0.26356241     0.01200
C190        C  0.32235743  0.65846469  0.27848572    -0.11000
C191        C  0.30800681  0.67201692  0.30801571     0.03700
C192        C  0.32175297  0.70141159  0.32247266    -0.10400
H193        H  0.38667157  0.71483441  0.26654742     0.09300
H194        H  0.31174218  0.63574828  0.26723246     0.06800
H195        H  0.31041858  0.71196282  0.34528197     0.06600
C196        C  0.37097194  0.69137776  0.61909692     0.03700
C197        C  0.38628242  0.67861974  0.64870697    -0.12500
C198        C  0.37691357  0.64679546  0.66188725     0.01200
C199        C  0.35232273  0.62756156  0.64504219    -0.11000
C200        C  0.33586078  0.64057468  0.61631051     0.03700
C201        C  0.34566990  0.67220637  0.60312745    -0.10400
H202        H  0.40436637  0.69407356  0.66237998     0.09300
H203        H  0.34471651  0.60309324  0.65526945     0.06800
H204        H  0.33242135  0.68268224  0.58139007     0.06600
C205        C  0.38692802  0.36661225  0.66248503     0.03700
C206        C  0.35719752  0.38213304  0.65084709    -0.12500
C207        C  0.33909883  0.36787941  0.62391785     0.01200
C208        C  0.35186649  0.33889832  0.60759188    -0.11000
C209        C  0.38222181  0.32394585  0.61863516     0.03700
C210        C  0.39969537  0.33785768  0.64607290    -0.10400
H211        H  0.34672997  0.40367292  0.66447697     0.09300
H212        H  0.33741402  0.32704077  0.58749282     0.06800
H213        H  0.42180524  0.32491439  0.65618489     0.06600
C214        C  0.66737863  0.64034740  0.66990073     0.03700
C215        C  0.69656607  0.62974530  0.65255818    -0.12500
C216        C  0.71050785  0.65003301  0.62680148     0.01200
C217        C  0.69500049  0.68089365  0.61819075    -0.11000
C218        C  0.66547066  0.69141003  0.63524178     0.03700
C219        C  0.65135328  0.67070457  0.66068051    -0.10400
H220        H  0.70962709  0.60681777  0.66058636     0.09300
H221        H  0.70655016  0.69720360  0.59911117     0.06800
H222        H  0.62908783  0.67913896  0.67462934     0.06600
C223        C  0.38730672  0.32069051  0.34224842     0.03700
C224        C  0.35682570  0.33138557  0.35742958    -0.12500
C225        C  0.33934621  0.35972419  0.34486823     0.01200
C226        C  0.35290051  0.37816481  0.31743491    -0.11000
C227        C  0.38348548  0.36791259  0.30194347     0.03700
C228        C  0.40055454  0.33912366  0.31457348    -0.10400
H229        H  0.34593593  0.31683021  0.37823705     0.09300
H230        H  0.33854307  0.39915744  0.30684539     0.06800
H231        H  0.42336585  0.33019123  0.30187503     0.06600
C232        C  0.18601331  0.43735870  0.60269011    -0.01500
C233        C  0.20422797  0.41083430  0.58707521     0.07100
C234        C  0.18790660  0.39012292  0.56333614    -0.07400
C235        C  0.15391731  0.39563948  0.55467588     0.04600
C236        C  0.13580211  0.42307673  0.56932462    -0.14700
C237        C  0.15234993  0.44344950  0.59350570    -0.08000
C238        C  0.23958379  0.40262730  0.59669401     0.05500
C239        C  0.24600897  0.39182507  0.63004012    -0.09100
C240        C  0.27840273  0.38105747  0.63957956     0.00500
C241        C  0.30501941  0.38087866  0.61534465     0.00400
C242        C  0.29871705  0.39210754  0.58210310    -0.12700
C243        C  0.26632093  0.40318749  0.57267641     0.00800
C244        C  0.28320352  0.36879092  0.67389795     0.40100
C245        C  0.26117469  0.41532671  0.53839521     0.36800
C246        C  0.20124622  0.45879576  0.62813235     0.36500
C247        C  0.13836834  0.37176245  0.53182182     0.37300
N248        N  0.28702361  0.35903397  0.70141086    -0.43500
N249        N  0.25712106  0.42513747  0.51093944    -0.44000
N250        N  0.12631616  0.35197196  0.51388139    -0.41400
N251        N  0.21323027  0.47599704  0.64861564    -0.42800
H252        H  0.13922450  0.46434657  0.60559166     0.13400
H253        H  0.20163399  0.36899031  0.55211834     0.09900
H254        H  0.22538525  0.39092355  0.64841615     0.10900
H255        H  0.31916605  0.39217377  0.56351993     0.16700
C256        C  0.19637488  0.55658203  0.56904337    -0.01500
C257        C  0.20644568  0.59076340  0.57175332     0.07100
C258        C  0.18280376  0.61679208  0.56632657    -0.07400
C259        C  0.14918260  0.60921584  0.55829350     0.04600
C260        C  0.13878170  0.57504375  0.55603319    -0.14700
C261        C  0.16248373  0.54888466  0.56160230    -0.08000
C262        C  0.24070156  0.60018624  0.58326028     0.05500
C263        C  0.26689896  0.60466462  0.55938203    -0.09100
C264        C  0.29872948  0.61675016  0.56955303     0.00500
C265        C  0.30443335  0.62422463  0.60414339     0.00400
C266        C  0.27832419  0.61870357  0.62793836    -0.12700
C267        C  0.24662797  0.60695641  0.61778611     0.00800
C268        C  0.32496865  0.62135489  0.54418931     0.40100
C269        C  0.22012663  0.60323001  0.64304510     0.36800
C270        C  0.22059912  0.52935482  0.57345323     0.36500
C271        C  0.12547951  0.63691004  0.55395957     0.37300
N272        N  0.34596356  0.62513711  0.52383142    -0.43500
N273        N  0.19885832  0.60039378  0.66326263    -0.44000
N274        N  0.10637376  0.65902063  0.55055020    -0.41400
N275        N  0.24046103  0.50788880  0.57667340    -0.42800
H276        H  0.15470386  0.52255001  0.55941564     0.13400
H277        H  0.19058192  0.64308606  0.56894576     0.09900
H278        H  0.26219486  0.59945272  0.53277023     0.10900
H279        H  0.28225356  0.62495420  0.65441799     0.16700
C280        C  0.16340474  0.62726771  0.37904947    -0.01500
C281        C  0.19124750  0.60769261  0.36788879     0.07100
C282        C  0.19087656  0.57235768  0.37220173    -0.07400
C283        C  0.16259418  0.55621147  0.38646236     0.04600
C284        C  0.13391915  0.57559984  0.39588319    -0.14700
C285        C  0.13491274  0.61109709  0.39275658    -0.08000
C286        C  0.22116848  0.62371102  0.35196704     0.05500
C287        C  0.25205995  0.62343689  0.36949592    -0.09100
C288        C  0.28074188  0.63909808  0.35551677     0.00500
C289        C  0.27847040  0.65530576  0.32361686     0.00400
C290        C  0.24780875  0.65483486  0.30570843    -0.12700
C291        C  0.21916682  0.63910030  0.31961917     0.00800
C292        C  0.31246193  0.63734502  0.37369973     0.40100
C293        C  0.18819662  0.63847655  0.30011387     0.36800
C294        C  0.16388977  0.66393280  0.37732515     0.36500
C295        C  0.16484349  0.52034678  0.39372262     0.37300
N296        N  0.33800139  0.63587968  0.38805427    -0.43500
N297        N  0.16332940  0.63790924  0.28457935    -0.44000
N298        N  0.16719437  0.49176837  0.40024892    -0.41400
N299        N  0.16442751  0.69331127  0.37601555    -0.42800
H300        H  0.11329679  0.62622039  0.40083017     0.13400
H301        H  0.21283958  0.55746127  0.36464555     0.09900
H302        H  0.25366039  0.61109298  0.39414206     0.10900
H303        H  0.24630218  0.66683925  0.28088498     0.16700
C304        C  0.19145443  0.38462327  0.42412908    -0.01500
C305        C  0.20433845  0.39311691  0.39179685     0.07100
C306        C  0.18346954  0.40997256  0.36845211    -0.07400
C307        C  0.15004308  0.41882145  0.37700829     0.04600
C308        C  0.13697174  0.41067025  0.40966792    -0.14700
C309        C  0.15806534  0.39339242  0.43277623    -0.08000
C310        C  0.23941677  0.38429769  0.38149336     0.05500
C311        C  0.24496313  0.35405224  0.36367312    -0.09100
C312        C  0.27748873  0.34543335  0.35211568     0.00500
C313        C  0.30497198  0.36764985  0.35790634     0.00400
C314        C  0.29945229  0.39784257  0.37597866    -0.12700
C315        C  0.26695356  0.40608931  0.38815939     0.00800
C316        C  0.28193528  0.31404462  0.33370096     0.40100
C317        C  0.26232652  0.43685145  0.40752418     0.36800
C318        C  0.21208952  0.36705045  0.44884386     0.36500
C319        C  0.13020890  0.43672510  0.35185632     0.37300
N320        N  0.28559030  0.28884301  0.31905978    -0.43500
N321        N  0.25853628  0.46135547  0.42327237    -0.44000
N322        N  0.11461993  0.45139264  0.33168929    -0.41400
N323        N  0.22856334  0.35293869  0.46868693    -0.42800
H324        H  0.14885212  0.38727006  0.45799521     0.13400
H325        H  0.19346901  0.41642096  0.34349865     0.09900
H326        H  0.22375934  0.33727902  0.35862745     0.10900
H327        H  0.32057134  0.41480107  0.38073039     0.16700
C328        C  0.85211641  0.60987436  0.54428567    -0.01500
C329        C  0.84246818  0.60955765  0.57878100     0.07100
C330        C  0.86527335  0.59762421  0.60336059    -0.07400
C331        C  0.89753500  0.58597314  0.59397082     0.04600
C332        C  0.90723208  0.58620377  0.55938182    -0.14700
C333        C  0.88431179  0.59827084  0.53489092    -0.08000
C334        C  0.80853707  0.62123287  0.58975323     0.05500
C335        C  0.78004403  0.60188150  0.58097468    -0.09100
C336        C  0.74764870  0.61129883  0.59217169     0.00500
C337        C  0.74358416  0.64074079  0.61202897     0.00400
C338        C  0.77197951  0.66047584  0.62021710    -0.12700
C339        C  0.80442892  0.65078964  0.60947027     0.00800
C340        C  0.71896424  0.59044943  0.58314778     0.40100
C341        C  0.83314225  0.67132068  0.61914128     0.36800
C342        C  0.82960915  0.62236998  0.51817412     0.36500
C343        C  0.92043491  0.57499345  0.62038339     0.37300
N344        N  0.69590355  0.57378511  0.57602719    -0.43500
N345        N  0.85621593  0.68763115  0.62699334    -0.44000
N346        N  0.93877385  0.56631288  0.64162017    -0.41400
N347        N  0.81163592  0.63236535  0.49719561    -0.42800
H348        H  0.89126370  0.59811937  0.50821392     0.13400
H349        H  0.85778014  0.59743836  0.62993914     0.09900
H350        H  0.78326122  0.57908154  0.56588316     0.10900
H351        H  0.76884970  0.68293041  0.63584288     0.16700
C352        C  0.84632914  0.43968931  0.59369754    -0.01500
C353        C  0.83442907  0.40630109  0.58951821     0.07100
C354        C  0.85586522  0.38171998  0.57514374    -0.07400
C355        C  0.88909560  0.38996560  0.56515710     0.04600
C356        C  0.90096755  0.42367109  0.56867247    -0.14700
C357        C  0.87917451  0.44819524  0.58298792    -0.08000
C358        C  0.80030207  0.39606511  0.60166517     0.05500
C359        C  0.77338188  0.39486372  0.57854977    -0.09100
C360        C  0.74106581  0.38420435  0.58908248     0.00500
C361        C  0.73565339  0.37373171  0.62307720     0.00400
C362        C  0.76240170  0.37612278  0.64641684    -0.12700
C363        C  0.79451303  0.38742038  0.63599595     0.00800
C364        C  0.71356015  0.38516420  0.56494367     0.40100
C365        C  0.82131952  0.38972697  0.66077259     0.36800
C366        C  0.82546034  0.46541490  0.60953678     0.36500
C367        C  0.91101817  0.36288927  0.55362888     0.37300
N368        N  0.69127847  0.38604628  0.54589108    -0.43500
N369        N  0.84288188  0.39187615  0.68051644    -0.44000
N370        N  0.92861574  0.34100687  0.54482805    -0.41400
N371        N  0.80880256  0.48591236  0.62250260    -0.42800
H372        H  0.88767465  0.47418478  0.58592104     0.13400
H373        H  0.84690183  0.35579764  0.57266967     0.09900
H374        H  0.77764202  0.40235894  0.55230939     0.10900
H375        H  0.75841643  0.36840197  0.67263229     0.16700
C376        C  0.77309878  0.40007683  0.38801446    -0.01500
C377        C  0.80274060  0.39693460  0.36800469     0.07100
C378        C  0.80086529  0.38212337  0.33570663    -0.07400
C379        C  0.77010739  0.36933926  0.32368831     0.04600
C380        C  0.74070787  0.37158533  0.34417625    -0.14700
C381        C  0.74235349  0.38734962  0.37598912    -0.08000
C382        C  0.83649064  0.40534935  0.38180045     0.05500
C383        C  0.84865956  0.38604586  0.40903546    -0.09100
C384        C  0.88096372  0.39163891  0.42233545     0.00500
C385        C  0.90214965  0.41711234  0.40793975     0.00400
C386        C  0.88949981  0.43655702  0.38055172    -0.12700
C387        C  0.85700814  0.43091096  0.36753286     0.00800
C388        C  0.89080863  0.37020566  0.45035900     0.40100
C389        C  0.84489132  0.45200393  0.34003079     0.36800
C390        C  0.77382260  0.41570617  0.42115106     0.36500
C391        C  0.76978652  0.35201572  0.29139004     0.37300
N392        N  0.89744392  0.35235353  0.47280979    -0.43500
N393        N  0.83491625  0.46879638  0.31802261    -0.44000
N394        N  0.76952945  0.33799091  0.26559128    -0.41400
N395        N  0.77445612  0.42819644  0.44772061    -0.42800
H396        H  0.71971355  0.38897623  0.39173509     0.13400
H397        H  0.82377218  0.37920519  0.32055492     0.09900
H398        H  0.83279031  0.36613422  0.41976890     0.10900
H399        H  0.90489028  0.45647729  0.36923522     0.16700
C400        C  0.86454660  0.57333489  0.35078253    -0.01500
C401        C  0.84751620  0.60066987  0.36622935     0.07100
C402        C  0.86201451  0.61665457  0.39432349    -0.07400
C403        C  0.89303270  0.60559044  0.40752230     0.04600
C404        C  0.90973703  0.57711857  0.39301233    -0.14700
C405        C  0.89516820  0.56159861  0.36436579    -0.08000
C406        C  0.81442972  0.61307034  0.35364045     0.05500
C407        C  0.78573251  0.59221104  0.35721204    -0.09100
C408        C  0.75365340  0.60391409  0.34743658     0.00500
C409        C  0.75018465  0.63695738  0.33405554     0.00400
C410        C  0.77891115  0.65761137  0.33003375    -0.12700
C411        C  0.81097302  0.64587781  0.33956810     0.00800
C412        C  0.72451616  0.58219106  0.35235388     0.40100
C413        C  0.84003025  0.66763520  0.33421575     0.36800
C414        C  0.85164377  0.55784828  0.32025810     0.36500
C415        C  0.90687949  0.62474415  0.43537918     0.37300
N416        N  0.70105251  0.56492024  0.35629421    -0.43500
N417        N  0.86337361  0.68497625  0.32986359    -0.44000
N418        N  0.91742087  0.64106452  0.45731640    -0.41400
N419        N  0.84134857  0.54581373  0.29558790    -0.42800
H420        H  0.90768836  0.54038266  0.35213465     0.13400
H421        H  0.84899576  0.63803677  0.40591824     0.09900
H422        H  0.78836745  0.56702979  0.36821546     0.10900
H423        H  0.77622274  0.68291901  0.31933358     0.16700
C424        C  0.65916753  0.22113595  0.60999133    -0.01500
C425        C  0.62731010  0.21699680  0.59448585     0.07100
C426        C  0.60674832  0.24542922  0.58824792    -0.07400
C427        C  0.61740020  0.27790108  0.59788324     0.04600
C428        C  0.64921033  0.28202599  0.61363546    -0.14700
C429        C  0.67002247  0.25358895  0.61913620    -0.08000
C430        C  0.61443339  0.18285806  0.58630953     0.05500
C431        C  0.59270699  0.16675247  0.60956773    -0.09100
C432        C  0.58153605  0.13351609  0.60400813     0.00500
C433        C  0.59178987  0.11614700  0.57424966     0.00400
C434        C  0.61370987  0.13252961  0.55107603    -0.12700
C435        C  0.62509397  0.16558136  0.55690806     0.00800
C436        C  0.56120557  0.11758461  0.63018517     0.40100
C437        C  0.64767636  0.18125401  0.53243168     0.36800
C438        C  0.68027658  0.19223199  0.61821312     0.36500
C439        C  0.59530994  0.30654598  0.59166332     0.37300
N440        N  0.54507385  0.10507825  0.65148310    -0.43500
N441        N  0.66579420  0.19369386  0.51276504    -0.44000
N442        N  0.57762722  0.32954578  0.58675783    -0.41400
N443        N  0.69697447  0.16896224  0.62495968    -0.42800
H444        H  0.69417912  0.25661434  0.63190365     0.13400
H445        H  0.58215013  0.24211298  0.57643921     0.09900
H446        H  0.58513754  0.17997026  0.63255266     0.10900
H447        H  0.62181110  0.11965680  0.52808760     0.16700
C448        C  0.38396585  0.22993323  0.60301012    -0.01500
C449        C  0.41333770  0.22628385  0.58253628     0.07100
C450        C  0.43259459  0.25512477  0.57404683    -0.07400
C451        C  0.42295164  0.28728680  0.58568535     0.04600
C452        C  0.39305788  0.29089000  0.60513058    -0.14700
C453        C  0.37386717  0.26217030  0.61372424    -0.08000
C454        C  0.42346268  0.19263196  0.56912844     0.05500
C455        C  0.39985453  0.17445533  0.54982041    -0.09100
C456        C  0.40650885  0.14121269  0.53952595     0.00500
C457        C  0.43773978  0.12581185  0.54804479     0.00400
C458        C  0.46199578  0.14453301  0.56611025    -0.12700
C459        C  0.45522071  0.17778038  0.57654253     0.00800
C460        C  0.37992329  0.12311371  0.52216692     0.40100
C461        C  0.48093387  0.19563225  0.59545906     0.36800
C462        C  0.36432712  0.20091601  0.61416300     0.36500
C463        C  0.44385197  0.31625534  0.57728047     0.37300
N464        N  0.35840891  0.10879080  0.50835381    -0.43500
N465        N  0.50178481  0.20987634  0.61032871    -0.44000
N466        N  0.46061798  0.33953212  0.57075009    -0.41400
N467        N  0.34864963  0.17763344  0.62305045    -0.42800
H468        H  0.35133492  0.26492741  0.62947759     0.13400
H469        H  0.45507023  0.25250949  0.55822148     0.09900
H470        H  0.37561991  0.18602657  0.54363519     0.10900
H471        H  0.48632267  0.13312833  0.57224339     0.16700
C472        C  0.43499693  0.17591910  0.41354345    -0.01500
C473        C  0.44382654  0.19092100  0.38219981     0.07100
C474        C  0.46445735  0.17300451  0.35929050    -0.07400
C475        C  0.47505931  0.13972374  0.36654068     0.04600
C476        C  0.46463728  0.12391219  0.39722400    -0.14700
C477        C  0.44522144  0.14269004  0.42068522    -0.08000
C478        C  0.42953191  0.22414466  0.37183580     0.05500
C479        C  0.45050565  0.25288377  0.37080413    -0.09100
C480        C  0.43738894  0.28470996  0.36144487     0.00500
C481        C  0.40273665  0.28789072  0.35275689     0.00400
C482        C  0.38196843  0.25890307  0.35360848    -0.12700
C483        C  0.39504216  0.22723657  0.36296009     0.00800
C484        C  0.45968054  0.31377681  0.36199718     0.40100
C485        C  0.37277904  0.19809186  0.36263080     0.36800
C486        C  0.41526443  0.19404759  0.43868856     0.36500
C487        C  0.49507012  0.12220960  0.34125809     0.37300
N488        N  0.47760755  0.33704473  0.36242790    -0.43500
N489        N  0.35499418  0.17470967  0.36235641    -0.44000
N490        N  0.51119176  0.10854908  0.32075482    -0.41400
N491        N  0.39955051  0.20847566  0.45897149    -0.42800
H492        H  0.43774891  0.13135281  0.44475520     0.13400
H493        H  0.47134186  0.18468142  0.33520305     0.09900
H494        H  0.47704485  0.25047040  0.37769999     0.10900
H495        H  0.35545575  0.26093929  0.34647626     0.16800
C496        C  0.59768789  0.16594030  0.39306412    -0.01500
C497        C  0.63011657  0.17953271  0.39924444     0.07100
C498        C  0.65416679  0.16035646  0.41715962    -0.07400
C499        C  0.64673422  0.12724665  0.42786750     0.04600
C500        C  0.61457098  0.11324587  0.42086149    -0.14700
C501        C  0.59021759  0.13301137  0.40383042    -0.08000
C502        C  0.64034991  0.21255415  0.38476424     0.05500
C503        C  0.64628269  0.24000808  0.40650545    -0.09100
C504        C  0.65571348  0.27172621  0.39331589     0.00500
C505        C  0.65924672  0.27602506  0.35779170     0.00400
C506        C  0.65394246  0.24817192  0.33627628    -0.12700
C507        C  0.64469135  0.21659653  0.34943614     0.00800
C508        C  0.66081426  0.29947972  0.41662438     0.40100
C509        C  0.64044482  0.18851377  0.32629336     0.36800
C510        C  0.57186734  0.18510030  0.37533639     0.36500
C511        C  0.67325658  0.10760806  0.44381941     0.37300
N512        N  0.66515552  0.32167805  0.43530654    -0.43500
N513        N  0.63699634  0.16597498  0.30783047    -0.44000
N514        N  0.69467779  0.09190068  0.45641363    -0.41400
N515        N  0.55118400  0.20030313  0.36100810    -0.42800
H516        H  0.56521660  0.12272230  0.39878528     0.13400
H517        H  0.67921983  0.17082866  0.42157418     0.09900
H518        H  0.64319515  0.23668176  0.43373512     0.10900
H519        H  0.65742409  0.25101111  0.30904542     0.16700
C520        C  0.35785787  0.78187041  0.58908853    -0.01500
C521        C  0.39145066  0.79305494  0.58421892     0.07100
C522        C  0.41851874  0.77072910  0.59041763    -0.07400
C523        C  0.41251707  0.73739129  0.60136917     0.04600
C524        C  0.37882414  0.72614409  0.60665931    -0.14700
C525        C  0.35179345  0.74867035  0.60029509    -0.08000
C526        C  0.39911994  0.82833754  0.57384044     0.05500
C527        C  0.41278531  0.85035548  0.59799187    -0.09100
C528        C  0.42213439  0.88345937  0.58907130     0.00500
C529        C  0.41885341  0.89460977  0.55498909     0.00400
C530        C  0.40380302  0.87283104  0.53116565    -0.12700
C531        C  0.39370239  0.83998614  0.54041363     0.00800
C532        C  0.43513256  0.90517780  0.61548490     0.40100
C533        C  0.37821925  0.81855368  0.51517232     0.36800
C534        C  0.32935083  0.80427725  0.58342685     0.36500
C535        C  0.44127219  0.71507380  0.60612749     0.37300
N536        N  0.44552436  0.92250027  0.63672553    -0.43500
N537        N  0.36532725  0.80149983  0.49514053    -0.44000
N538        N  0.46427924  0.69717200  0.61005723    -0.41400
N539        N  0.30660219  0.82231431  0.57872318    -0.42800
H540        H  0.32583950  0.74048532  0.60463972     0.13400
H541        H  0.44439711  0.77940358  0.58654044     0.09900
H542        H  0.41626028  0.84153400  0.62391066     0.10900
H543        H  0.40069885  0.88096175  0.50502300     0.16700
C544        C  0.63213287  0.85096887  0.59779364    -0.01500
C545        C  0.61037780  0.82326658  0.60382595     0.07100
C546        C  0.57524060  0.82734198  0.60046219    -0.07400
C547        C  0.56152229  0.85855795  0.59033500     0.04600
C548        C  0.58329746  0.88636022  0.58391330    -0.14700
C549        C  0.61847213  0.88223830  0.58798905    -0.08000
C550        C  0.62396663  0.78929303  0.61175652     0.05500
C551        C  0.63380420  0.78193595  0.64512616    -0.09100
C552        C  0.64719415  0.75006709  0.65341675     0.00500
C553        C  0.65076103  0.72510751  0.62790086     0.00400
C554        C  0.64107964  0.73268902  0.59447602    -0.12700
C555        C  0.62765191  0.76451951  0.58625814     0.00800
C556        C  0.65820384  0.74404161  0.68789808     0.40100
C557        C  0.61829429  0.77138077  0.55146079     0.36800
C558        C  0.66855682  0.84746267  0.60009940     0.36500
C559        C  0.52560396  0.86015758  0.58373758     0.37300
N560        N  0.66699883  0.73912021  0.71551206    -0.43500
N561        N  0.61085074  0.77671210  0.52352644    -0.44000
N562        N  0.49683036  0.86080917  0.57808049    -0.41400
N563        N  0.69775536  0.84464440  0.60180697    -0.42800
H564        H  0.63543242  0.90333246  0.58271020     0.13400
H565        H  0.55864946  0.80571331  0.60461324     0.09900
H566        H  0.63123322  0.80122841  0.66459406     0.10900
H567        H  0.64398439  0.71364693  0.57480636     0.16700
C568        C  0.61679884  0.75894830  0.37431098    -0.01500
C569        C  0.63930943  0.78638434  0.37850808     0.07100
C570        C  0.67309371  0.78339706  0.36783964    -0.07400
C571        C  0.68475060  0.75360852  0.35266234     0.04600
C572        C  0.66231230  0.72596905  0.34819061    -0.14700
C573        C  0.62840619  0.72896063  0.35907580    -0.08000
C574        C  0.62797333  0.81916696  0.39254477     0.05500
C575        C  0.62205338  0.82196080  0.42757087    -0.09100
C576        C  0.61230177  0.85306071  0.44174306     0.00500
C577        C  0.60802865  0.88171014  0.42041894     0.00400
C578        C  0.61387662  0.87869555  0.38538978    -0.12700
C579        C  0.62416385  0.84784820  0.37138893     0.00800
C580        C  0.60556184  0.85438777  0.47781120     0.40100
C581        C  0.63056171  0.84618575  0.33525165     0.36800
C582        C  0.58163941  0.76147357  0.38464696     0.36500
C583        C  0.71947354  0.75271351  0.34065230     0.37300
N584        N  0.60020969  0.85533250  0.50674137    -0.43500
N585        N  0.63585992  0.84496418  0.30632072    -0.44000
N586        N  0.74732950  0.75197935  0.33116017    -0.41400
N587        N  0.55349339  0.76368119  0.39298241    -0.42800
H588        H  0.61104670  0.70790040  0.35559703     0.13400
H589        H  0.69024001  0.80472021  0.37087863     0.09900
H590        H  0.62516192  0.79982284  0.44379237     0.10900
H591        H  0.61060987  0.90061892  0.36890442     0.16700
C592        C  0.39282031  0.86284257  0.37678014    -0.01500
C593        C  0.41232553  0.83416820  0.36811525     0.07100
C594        C  0.44758579  0.83464921  0.37232756    -0.07400
C595        C  0.46377208  0.86365686  0.38465874     0.04600
C596        C  0.44434942  0.89283678  0.39260659    -0.14700
C597        C  0.40890540  0.89187583  0.38901765    -0.08000
C598        C  0.39640722  0.80398173  0.35313975     0.05500
C599        C  0.38694259  0.80542179  0.31897015    -0.09100
C600        C  0.37134085  0.77771052  0.30358725     0.00500
C601        C  0.36507228  0.74784044  0.32268958     0.00400
C602        C  0.37442087  0.74660602  0.35707102    -0.12700
C603        C  0.39010366  0.77441866  0.37236834     0.00800
C604        C  0.36125186  0.78122452  0.26854329     0.40100
C605        C  0.39934998  0.77219609  0.40774406     0.36800
C606        C  0.35629674  0.86278474  0.37354800     0.36500
C607        C  0.49989081  0.86195632  0.39049620     0.37300
N608        N  0.35347086  0.78472842  0.24043576    -0.43500
N609        N  0.40684310  0.77032249  0.43608580    -0.44000
N610        N  0.52881258  0.86026402  0.39529645    -0.41400
N611        N  0.32703557  0.86251924  0.37097986    -0.42800
H612        H  0.39374154  0.91397312  0.39552162     0.13400
H613        H  0.46242664  0.81229793  0.36592851     0.09900
H614        H  0.39165182  0.82840504  0.30436272     0.10900
H615        H  0.36989758  0.72369730  0.37183523     0.16700
C616        C  0.57011892  0.37925693  0.15603978    -0.01500
C617        C  0.60214725  0.38854893  0.16851944     0.07100
C618        C  0.62438617  0.40737824  0.14809632    -0.07400
C619        C  0.61494586  0.41777300  0.11556282     0.04600
C620        C  0.58195247  0.41036331  0.10348417    -0.14700
C621        C  0.55999190  0.39070955  0.12394608    -0.08000
C622        C  0.61395147  0.37794486  0.20234076     0.05500
C623        C  0.62729995  0.34521244  0.20612671    -0.09100
C624        C  0.64275918  0.33544679  0.23646118     0.00500
C625        C  0.64441716  0.35860404  0.26374587     0.00400
C626        C  0.63057309  0.39125928  0.26007991    -0.12700
C627        C  0.61543979  0.40111502  0.22950463     0.00800
C628        C  0.65865219  0.30237359  0.23818571     0.40100
C629        C  0.60215556  0.43519578  0.22621500     0.36800
C630        C  0.54742542  0.35797890  0.17567178     0.36500
C631        C  0.64000785  0.43555347  0.09532790     0.37300
N632        N  0.67157262  0.27597126  0.23951737    -0.43500
N633        N  0.59154605  0.46250681  0.22345358    -0.44000
N634        N  0.66024228  0.44976388  0.07927623    -0.41400
N635        N  0.52927127  0.34081804  0.19132228    -0.42800
H636        H  0.53480340  0.38430972  0.11513954     0.13400
H637        H  0.64945594  0.41358770  0.15755041     0.09900
H638        H  0.62678789  0.32776171  0.18485465     0.10900
H639        H  0.63192234  0.40909242  0.28097838     0.16700
C640        C  0.66546735  0.63765390  0.18966369    -0.01500
C641        C  0.63241567  0.62429458  0.18693681     0.07100
C642        C  0.61163292  0.62217839  0.21595730    -0.07400
C643        C  0.62352622  0.63285612  0.24762355     0.04600
C644        C  0.65671678  0.64590117  0.25037946    -0.14700
C645        C  0.67726352  0.64847213  0.22123077    -0.08000
C646        C  0.62033253  0.60937383  0.15478727     0.05500
C647        C  0.61591761  0.57412257  0.15338210    -0.09100
C648        C  0.60575706  0.55841839  0.12335123     0.00500
C649        C  0.60041687  0.57814866  0.09378575     0.00400
C650        C  0.60384978  0.61362834  0.09552641    -0.12700
C651        C  0.61368381  0.62935587  0.12576665     0.00800
C652        C  0.59862886  0.52251777  0.12455050     0.40100
C653        C  0.61623535  0.66594058  0.12666138     0.36800
C654        C  0.68827594  0.63891508  0.16081585     0.36500
C655        C  0.60203836  0.62839100  0.27714782     0.37300
N656        N  0.59239974  0.49384530  0.12606118    -0.43500
N657        N  0.61825598  0.69526390  0.12743696    -0.44000
N658        N  0.58488382  0.62466432  0.30084247    -0.41400
N659        N  0.70654432  0.63987042  0.13769327    -0.42800
H660        H  0.70285563  0.65839355  0.22331613     0.13400
H661        H  0.58639948  0.61137178  0.21395067     0.09900
H662        H  0.62031980  0.55883853  0.17596001     0.10900
H663        H  0.59902012  0.62907959  0.07316782     0.16700
C664        C  0.44844436  0.62027133  0.13812949    -0.01500
C665        C  0.41320170  0.62035345  0.14413825     0.07100
C666        C  0.39079014  0.61008687  0.11876509    -0.07400
C667        C  0.40298099  0.59964705  0.08730377     0.04600
C668        C  0.43831104  0.59967650  0.08099243    -0.14700
C669        C  0.46077308  0.61012967  0.10646176    -0.08000
C670        C  0.39849073  0.63378687  0.17552386     0.05500
C671        C  0.38092778  0.66462832  0.17342150    -0.09100
C672        C  0.36425058  0.67765158  0.20171660     0.00500
C673        C  0.36586299  0.65998059  0.23283140     0.00400
C674        C  0.38304937  0.62880536  0.23490613    -0.12700
C675        C  0.39919962  0.61539007  0.20626259     0.00800
C676        C  0.34405879  0.70801372  0.19763431     0.40100
C677        C  0.41532297  0.58247062  0.20857167     0.36800
C678        C  0.47226132  0.63058115  0.16388338     0.36500
C679        C  0.37855040  0.58974052  0.06192042     0.37300
N680        N  0.32745678  0.73197660  0.19372007    -0.43500
N681        N  0.42813234  0.55603152  0.21030348    -0.44000
N682        N  0.35889080  0.58172846  0.04171941    -0.41400
N683        N  0.49146493  0.63860722  0.18450967    -0.42800
H684        H  0.48796267  0.60962554  0.10199332     0.13400
H685        H  0.36362282  0.61058309  0.12355578     0.09900
H686        H  0.37964661  0.67811481  0.14933844     0.10900
H687        H  0.38379553  0.61506389  0.25885078     0.16700
C688        C  0.40896131  0.37818423  0.20967084    -0.01500
C689        C  0.41080921  0.41377718  0.20606903     0.07100
C690        C  0.40596395  0.43445686  0.23461763    -0.07400
C691        C  0.39841729  0.42002937  0.26646971     0.04600
C692        C  0.39498976  0.38439102  0.26980617    -0.14700
C693        C  0.40089016  0.36381855  0.24125547    -0.08000
C694        C  0.41771323  0.42935937  0.17240336     0.05500
C695        C  0.39031956  0.43866881  0.15164623    -0.09100
C696        C  0.39567966  0.44816169  0.11761184     0.00500
C697        C  0.42879616  0.44722235  0.10381218     0.00400
C698        C  0.45629358  0.43968409  0.12521457    -0.12700
C699        C  0.45101090  0.43144129  0.15944505     0.00800
C700        C  0.36671956  0.45689976  0.09700166     0.40100
C701        C  0.47998419  0.42524030  0.18092390     0.36800
C702        C  0.41482628  0.35592198  0.18111889     0.36500
C703        C  0.39533705  0.44217830  0.29548419     0.37300
N704        N  0.34347647  0.46408050  0.08057041    -0.43500
N705        N  0.50309712  0.42091402  0.19846202    -0.44000
N706        N  0.39304752  0.45989196  0.31879646    -0.41400
N707        N  0.41967431  0.33812313  0.15825047    -0.42800
H708        H  0.39836737  0.33647734  0.24341307     0.13400
H709        H  0.40816375  0.46178657  0.23199833     0.09900
H710        H  0.36467263  0.43738208  0.16173804     0.10900
H711        H  0.48197626  0.43996312  0.11509510     0.16700
C712        C  0.59852308  0.59585538  0.81411025    -0.01500
C713        C  0.62594972  0.58082859  0.79679800     0.07100
C714        C  0.64494754  0.55526078  0.81271552    -0.07400
C715        C  0.63683691  0.54424634  0.84565790     0.04600
C716        C  0.60882810  0.55884353  0.86299342    -0.14700
C717        C  0.59002030  0.58459860  0.84665824    -0.08000
C718        C  0.63699750  0.59364514  0.76329338     0.05500
C719        C  0.66718977  0.61229495  0.76152790    -0.09100
C720        C  0.67751770  0.62726117  0.73103709     0.00500
C721        C  0.65755449  0.62330425  0.70168573     0.00400
C722        C  0.62753165  0.60428538  0.70322184    -0.12700
C723        C  0.61717467  0.58927051  0.73386905     0.00800
C724        C  0.70790827  0.64780635  0.73069884     0.40100
C725        C  0.58629612  0.56953071  0.73469036     0.36800
C726        C  0.57971603  0.62394000  0.79967137     0.36500
C727        C  0.65885842  0.51931633  0.86101756     0.37300
N728        N  0.73215064  0.66439099  0.73020218    -0.43500
N729        N  0.56156985  0.55368285  0.73550340    -0.44000
N730        N  0.67714160  0.49947434  0.87273866    -0.41400
N731        N  0.56475577  0.64656892  0.78826192    -0.42800
H732        H  0.56865134  0.59649527  0.85942221     0.13400
H733        H  0.66662751  0.54437674  0.79952940     0.09900
H734        H  0.68218486  0.61593526  0.78427928     0.10900
H735        H  0.61220765  0.60137198  0.68059661     0.16700
C736        C  0.61924167  0.34441784  0.76247085    -0.01500
C737        C  0.61394709  0.37818447  0.77272383     0.07100
C738        C  0.62100321  0.40492172  0.75010272    -0.07400
C739        C  0.63371672  0.39835002  0.71746025     0.04600
C740        C  0.63991367  0.36444155  0.70738628    -0.14700
C741        C  0.63220240  0.33782498  0.73012725    -0.08000
C742        C  0.60368389  0.38604632  0.80790220     0.05500
C743        C  0.62838294  0.39843330  0.83007688    -0.09100
C744        C  0.62041015  0.40518966  0.86400799     0.00500
C745        C  0.58679082  0.40057141  0.87587780     0.00400
C746        C  0.56232690  0.38727442  0.85370771    -0.12700
C747        C  0.57057398  0.37973268  0.81999434     0.00800
C748        C  0.64750745  0.41558691  0.88624496     0.40100
C749        C  0.54466839  0.36580673  0.79826161     0.36800
C750        C  0.61285079  0.31622863  0.78524407     0.36500
C751        C  0.63975914  0.42672899  0.69485501     0.37300
N752        N  0.66932956  0.42355973  0.90410228    -0.43500
N753        N  0.52394921  0.35436353  0.78099402    -0.44000
N754        N  0.64469747  0.44955103  0.67685525    -0.41400
N755        N  0.60761618  0.29373718  0.80356611    -0.42800
H756        H  0.63728972  0.31170381  0.72300308     0.13400
H757        H  0.61685860  0.43094785  0.75813993     0.09900
H758        H  0.65415141  0.40222056  0.82092828     0.10900
H759        H  0.53646169  0.38351013  0.86229282     0.16700
C760        C  0.40272592  0.43180915  0.81295989    -0.01500
C761        C  0.41948449  0.40351227  0.79898841     0.07100
C762        C  0.44072675  0.38367670  0.81941523    -0.07400
C763        C  0.44593659  0.39192876  0.85344531     0.04600
C764        C  0.43129137  0.42190314  0.86699472    -0.14700
C765        C  0.40921529  0.44117191  0.84648500    -0.08000
C766        C  0.41342511  0.39287615  0.76369383     0.05500
C767        C  0.42396200  0.41406189  0.73683132    -0.09100
C768        C  0.41693002  0.40535493  0.70315799     0.00500
C769        C  0.39920982  0.37513732  0.69644173     0.00400
C770        C  0.38967044  0.35353939  0.72319410    -0.12700
C771        C  0.39659039  0.36216193  0.75671186     0.00800
C772        C  0.42813738  0.42745811  0.67597423     0.40100
C773        C  0.38482597  0.33989102  0.78355500     0.36800
C774        C  0.37740061  0.45036273  0.79396634     0.36500
C775        C  0.46494010  0.36804476  0.87378302     0.37300
N776        N  0.43732007  0.44503004  0.65413861    -0.43500
N777        N  0.37546937  0.32206154  0.80510088    -0.44000
N778        N  0.47962188  0.34812751  0.88970173    -0.41400
N779        N  0.35673823  0.46479142  0.77883888    -0.42800
H780        H  0.39653760  0.46341722  0.85652868     0.13400
H781        H  0.45257810  0.36111496  0.80887643     0.09900
H782        H  0.43729042  0.43750779  0.74226855     0.10900
H783        H  0.37567865  0.33043787  0.71787070     0.16700
C784        C  0.44118182  0.62233194  0.72888723    -0.01500
C785        C  0.42001643  0.61208654  0.75599259     0.07100
C786        C  0.38470950  0.61329903  0.75225078    -0.07400
C787        C  0.37017034  0.62465358  0.72197104     0.04600
C788        C  0.39126787  0.63462266  0.69447912    -0.14700
C789        C  0.42671046  0.63347927  0.69836159    -0.08000
C790        C  0.43380941  0.60108717  0.78910496     0.05500
C791        C  0.44839899  0.62538729  0.81041676    -0.09100
C792        C  0.45871324  0.61665711  0.84328471     0.00500
C793        C  0.45382541  0.58310505  0.85534734     0.00400
C794        C  0.43969661  0.55871459  0.83368656    -0.12700
C795        C  0.43017187  0.56735884  0.80058821     0.00800
C796        C  0.47270885  0.64304455  0.86437886     0.40100
C797        C  0.41777698  0.54114268  0.77834052     0.36800
C798        C  0.47768754  0.62102669  0.73173241     0.36500
C799        C  0.33361446  0.62730296  0.72057092     0.37300
N800        N  0.48398837  0.66436331  0.88104514    -0.43500
N801        N  0.40831603  0.52029790  0.76004930    -0.44000
N802        N  0.30430931  0.62935402  0.71982270    -0.41400
N803        N  0.50694494  0.61990798  0.73408928    -0.42800
H804        H  0.44307334  0.64109716  0.67742351     0.13400
H805        H  0.36846557  0.60593064  0.77338815     0.09900
H806        H  0.45102433  0.65140265  0.80155909     0.10900
H807        H  0.43661061  0.53270857  0.84243229     0.16700
loop_ 
_geom_bond_atom_site_label_1 
_geom_bond_atom_site_label_2 
_geom_bond_distance 
_geom_bond_site_symmetry_2 
_ccdc_geom_bond_type 
C1           N19   1.351       .  A
C1           C38   1.456       .  S
C1          C793   1.474       .  S
N2           N19   1.324       .  A
N2           N24   1.320       .  A
N2          Co39   2.089       .  S
C3           N28   1.340       .  A
C3           C41   1.461       .  S
C3           H48   1.081       .  S
H4           C45   1.078       .  S
C5           N29   1.337       .  A
C5            C9   1.460       .  S
C5           H34   1.078       .  S
Co6          N24   2.077       .  S
Co6          N14   2.064       .  S
Co6          N46   2.064   1_556  S
Co6          N22   2.072   1_556  S
Co6         Cl50   2.450       .  S
N7           C45   1.343       .  A
N7           N14   1.316       .  A
N7           Co8   2.084       .  S
Co8          N11   2.078       .  S
Co8          N28   2.086   1_556  S
Co8          N15   2.077   1_556  S
Co8         Cl50   2.446       .  S
C9           N47   1.349       .  A
C9          C745   1.477       .  S
N10          N17   1.316       .  A
N10          N40   1.322       .  A
N10         Co43   2.079       .  S
N11          N29   1.318       .  A
N11          N47   1.321       .  A
N12          C41   1.347       .  A
N12          N22   1.323       .  A
H13          C38   1.081       .  S
N14          N35   1.317       .  A
N15          N33   1.318       .  A
N15          N20   1.321       .  A
C16          N20   1.349       .  A
C16          C44   1.460       .  S
C16         C620   1.481       .  S
N17          C32   1.337       .  A
N17         Co39   2.066       .  S
C18          N46   1.338       .  A
C18          C21   1.457       .  S
C18          H52   1.081       .  S
C21          N42   1.342       .  A
C21         C668   1.461       .  S
N22          N28   1.319       .  A
N23          C49   1.346       .  A
N23          N25   1.320       .  A
N23         Co39   2.096   1_554  S
N24          C38   1.338       .  A
N25          N53   1.321       .  A
N25         Co43   2.077   1_554  S
H26          C49   1.081       .  S
H27          C44   1.081       .  S
N29         Co43   2.075       .  S
N30          N42   1.316       .  A
N30          N46   1.317       .  A
N30         Co39   2.057   1_554  S
C31          N35   1.347       .  A
C31          C45   1.468       .  S
C31         C716   1.483       .  S
C32          C51   1.461       .  S
C32          H36   1.080       .  S
N33          C44   1.339       .  A
N33         Co43   2.073   1_554  S
C37          N53   1.346       .  A
C37          C49   1.462       .  S
C37         C697   1.477       .  S
Co39        Cl50   2.449       .  S
N40          C51   1.350       .  A
C41         C649   1.476       .  S
Co43        Cl50   2.448       .  S
C51         C764   1.482       .  S
C54          N72   1.349       .  A
C54          C91   1.462       .  S
C54         C529   1.481       .  S
N55          N72   1.321       .  A
N55          N77   1.319       .  A
N55         Co92   2.078   1_565  S
C56          N81   1.343       .  A
C56          C94   1.463       .  S
C56         H101   1.079       .  S
H57          C98   1.081       .  S
C58          N82   1.340       .  A
C58          C62   1.457       .  S
C58          H87   1.081       .  S
Co59         N77   2.080   1_545  S
Co59         N67   2.071   1_545  S
Co59         N99   2.072       .  S
Co59         N75   2.079       .  S
Co59       Cl103   2.449       .  S
N60          C98   1.340       .  A
N60          N67   1.318       .  A
N60         Co61   2.080   1_565  S
Co61         N64   2.074   1_545  S
Co61         N81   2.084       .  S
Co61         N68   2.070       .  S
Co61       Cl103   2.449       .  S
C62         N100   1.347       .  A
C62         C577   1.469       .  S
N63          N70   1.319       .  A
N63          N93   1.320       .  A
N63         Co96   2.071       .  S
N64          N82   1.319       .  A
N64         N100   1.321       .  A
N65          C94   1.348       .  A
N65          N75   1.321       .  A
H66          C91   1.081       .  S
N67          N88   1.321       .  A
N68          N86   1.318       .  A
N68          N73   1.319       .  A
C69          N73   1.346       .  A
C69          C97   1.460       .  S
C69         C500   1.471       .  S
N70          C85   1.343       .  A
N70         Co92   2.086   1_565  S
C71          N99   1.338       .  A
C71          C74   1.457       .  S
C71         H105   1.080       .  S
C74          N95   1.349       .  A
C74         C457   1.473       .  S
N75          N81   1.318       .  A
N76         C102   1.340       .  A
N76          N78   1.318       .  A
N76         Co92   2.082       .  S
N77          C91   1.340       .  A
N78         N106   1.321       .  A
N78         Co96   2.075   1_545  S
H79         C102   1.080       .  S
H80          C97   1.080       .  S
N82         Co96   2.078       .  S
N83          N95   1.322       .  A
N83          N99   1.318       .  A
N83         Co92   2.079       .  S
C84          N88   1.347       .  A
C84          C98   1.460       .  S
C84         C596   1.473       .  S
C85         C104   1.462       .  S
C85          H89   1.081       .  S
N86          C97   1.341       .  A
N86         Co96   2.078   1_545  S
C90         N106   1.349       .  A
C90         C102   1.462       .  S
C90         C433   1.480       .  S
Co92       Cl103   2.448       .  S
N93         C104   1.345       .  A
C94         C476   1.482       .  S
Co96       Cl103   2.449   1_565  S
C104        C548   1.473       .  S
C107        N125   1.350       .  A
C107        C144   1.455       .  S
C107        C332   1.473       .  S
N108        N125   1.324       .  A
N108        N130   1.318       .  A
N108       Co145   2.080   1_655  S
C109        N134   1.340       .  A
C109        C147   1.458       .  S
C109        H154   1.081       .  S
H110        C151   1.081       .  S
C111        N135   1.338       .  A
C111        C115   1.466       .  S
C111        H140   1.075       .  S
Co112       N130   2.067   1_455  S
Co112       N120   2.082   1_455  S
Co112       N152   2.077       .  S
Co112       N128   2.072       .  S
Co112      Cl156   2.451       .  S
N113        C151   1.339       .  A
N113        N120   1.318       .  A
N113       Co114   2.084   1_655  S
Co114       N117   2.079   1_455  S
Co114       N134   2.078       .  S
Co114       N121   2.080       .  S
Co114      Cl156   2.449       .  S
C115        N153   1.351       .  A
C115        C385   1.490       .  S
N116        N123   1.319       .  A
N116        N146   1.327       .  A
N116       Co149   2.099   1_655  S
N117        N135   1.317       .  A
N117        N153   1.322       .  A
N118        C147   1.345       .  A
N118        N128   1.321       .  A
H119        C144   1.078       .  S
N120        N141   1.324       .  A
N121        N139   1.319       .  A
N121        N126   1.324       .  A
C122        N126   1.349       .  A
C122        C150   1.464       .  S
C122        C308   1.487       .  S
N123        C138   1.338       .  A
N123       Co145   2.076   1_655  S
C124        N152   1.338       .  A
C124        C127   1.454       .  S
C124        H158   1.081       .  S
C127        N148   1.348       .  A
C127        C260   1.471       .  S
N128        N134   1.319       .  A
N129        C155   1.334       .  A
N129        N131   1.317       .  A
N129       Co145   2.068       .  S
N130        C144   1.335       .  A
N131        N159   1.326       .  A
N131       Co149   2.089       .  S
H132        C155   1.080       .  S
H133        C150   1.079       .  S
N135       Co149   2.080   1_655  S
N136        N148   1.325       .  A
N136        N152   1.320       .  A
N136       Co145   2.085       .  S
C137        N141   1.351       .  A
C137        C151   1.463       .  S
C137        C404   1.488       .  S
C138        C157   1.459       .  S
C138        H142   1.081       .  S
N139        C150   1.340       .  A
N139       Co149   2.088       .  S
C143        N159   1.354       .  A
C143        C155   1.459       .  S
C143        C236   1.488       .  S
Co145      Cl156   2.449       .  S
N146        C157   1.353       .  A
C147        C284   1.469       .  S
Co149      Cl156   2.452       .  S
C157        C356   1.485       .  S
C160        C380   1.470       .  S
C160        C161   1.400       .  A
C160        C165   1.400       .  A
C161        H166   1.084       .  S
C161        C162   1.400       .  A
C162        C625   1.472       .  S
C162        C163   1.398       .  A
C163        H167   1.084       .  S
C163        C164   1.400       .  A
C164        C505   1.478       .  S
C164        C165   1.400       .  A
C165        H168   1.084       .  S
C169        C409   1.470       .  S
C169        C170   1.397       .  A
C169        C174   1.396       .  A
C170        H175   1.084       .  S
C170        C171   1.402       .  A
C171        C644   1.475       .  S
C171        C172   1.403       .  A
C172        H176   1.084       .  S
C172        C173   1.404       .  A
C173        C572   1.478       .  S
C173        C174   1.401       .  A
C174        H177   1.084       .  S
C178        C740   1.484       .  S
C178        C179   1.406       .  A
C178        C183   1.403       .  A
C179        H184   1.083       .  S
C179        C180   1.405       .  A
C180        C361   1.482       .  S
C180        C181   1.403       .  A
C181        H185   1.084       .  S
C181        C182   1.398       .  A
C182        C428   1.474       .  S
C182        C183   1.397       .  A
C183        H186   1.084       .  S
C187        C601   1.476       .  S
C187        C188   1.399       .  A
C187        C192   1.403       .  A
C188        H193   1.084       .  S
C188        C189   1.396       .  A
C189        C673   1.461       .  S
C189        C190   1.395       .  A
C190        H194   1.084       .  S
C190        C191   1.397       .  A
C191        C289   1.467       .  S
C191        C192   1.402       .  A
C192        H195   1.084       .  S
C196        C524   1.483       .  S
C196        C197   1.405       .  A
C196        C201   1.403       .  A
C197        H202   1.084       .  S
C197        C198   1.403       .  A
C198        C788   1.481       .  S
C198        C199   1.401       .  A
C199        H203   1.084       .  S
C199        C200   1.401       .  A
C200        C265   1.478       .  S
C200        C201   1.401       .  A
C201        H204   1.084       .  S
C205        C769   1.463       .  S
C205        C206   1.398       .  A
C205        C210   1.397       .  A
C206        H211   1.084       .  S
C206        C207   1.400       .  A
C207        C241   1.476       .  S
C207        C208   1.402       .  A
C208        H212   1.084       .  S
C208        C209   1.402       .  A
C209        C452   1.469       .  S
C209        C210   1.397       .  A
C210        H213   1.085       .  S
C214        C721   1.467       .  S
C214        C215   1.398       .  A
C214        C219   1.398       .  A
C215        H220   1.084       .  S
C215        C216   1.398       .  A
C216        C337   1.470       .  S
C216        C217   1.400       .  A
C217        H221   1.084       .  S
C217        C218   1.402       .  A
C218        C553   1.474       .  S
C218        C219   1.401       .  A
C219        H222   1.084       .  S
C223        C481   1.484       .  S
C223        C224   1.403       .  A
C223        C228   1.404       .  A
C224        H229   1.084       .  S
C224        C225   1.399       .  A
C225        C313   1.478       .  S
C225        C226   1.402       .  A
C226        H230   1.083       .  S
C226        C227   1.406       .  A
C227        C692   1.487       .  S
C227        C228   1.407       .  A
C228        H231   1.084       .  S
C232        C233   1.407       .  A
C232        C237   1.396       .  A
C232        C246   1.445       .  S
C233        C238   1.479       .  S
C233        C234   1.401       .  A
C234        H253   1.085       .  S
C234        C235   1.399       .  A
C235        C236   1.416       .  A
C235        C247   1.442       .  S
C236        C237   1.409       .  A
C237        H252   1.081       .  S
C238        C239   1.401       .  A
C238        C243   1.411       .  A
C239        H254   1.085       .  S
C239        C240   1.396       .  A
C240        C241   1.413       .  A
C240        C244   1.445       .  S
C241        C242   1.402       .  A
C242        H255   1.085       .  S
C242        C243   1.399       .  A
C243        C245   1.444       .  S
C244        N248   1.157       .  T
C245        N249   1.157       .  T
C246        N251   1.157       .  T
C247        N250   1.157       .  T
C256        C257   1.407       .  A
C256        C261   1.402       .  A
C256        C270   1.444       .  S
C257        C262   1.474       .  S
C257        C258   1.400       .  A
C258        H277   1.085       .  S
C258        C259   1.396       .  A
C259        C260   1.410       .  A
C259        C271   1.444       .  S
C260        C261   1.406       .  A
C261        H276   1.085       .  S
C262        C263   1.402       .  A
C262        C267   1.406       .  A
C263        H278   1.085       .  S
C263        C264   1.402       .  A
C264        C265   1.413       .  A
C264        C268   1.444       .  S
C265        C266   1.403       .  A
C266        H279   1.083       .  S
C266        C267   1.393       .  A
C267        C269   1.444       .  S
C268        N272   1.157       .  T
C269        N273   1.157       .  T
C270        N275   1.157       .  T
C271        N274   1.157       .  T
C280        C281   1.408       .  A
C280        C285   1.396       .  A
C280        C294   1.444       .  S
C281        C286   1.473       .  S
C281        C282   1.400       .  A
C282        H301   1.085       .  S
C282        C283   1.397       .  A
C283        C284   1.411       .  A
C283        C295   1.441       .  S
C284        C285   1.402       .  A
C285        H300   1.085       .  S
C286        C287   1.401       .  A
C286        C291   1.410       .  A
C287        H302   1.085       .  S
C287        C288   1.397       .  A
C288        C289   1.409       .  A
C288        C292   1.444       .  S
C289        C290   1.401       .  A
C290        H303   1.085       .  S
C290        C291   1.396       .  A
C291        C293   1.445       .  S
C292        N296   1.157       .  T
C293        N297   1.157       .  T
C294        N299   1.157       .  T
C295        N298   1.156       .  T
C304        C305   1.406       .  A
C304        C309   1.399       .  A
C304        C318   1.444       .  S
C305        C310   1.479       .  S
C305        C306   1.400       .  A
C306        H325   1.085       .  S
C306        C307   1.401       .  A
C307        C308   1.417       .  A
C307        C319   1.444       .  S
C308        C309   1.407       .  A
C309        H324   1.081       .  S
C310        C311   1.400       .  A
C310        C315   1.410       .  A
C311        H326   1.085       .  S
C311        C312   1.399       .  A
C312        C313   1.412       .  A
C312        C316   1.444       .  S
C313        C314   1.403       .  A
C314        H327   1.085       .  S
C314        C315   1.402       .  A
C315        C317   1.444       .  S
C316        N320   1.157       .  T
C317        N321   1.157       .  T
C318        N323   1.157       .  T
C319        N322   1.157       .  T
C328        C329   1.407       .  A
C328        C333   1.395       .  A
C328        C342   1.444       .  S
C329        C334   1.475       .  S
C329        C330   1.402       .  A
C330        H349   1.085       .  S
C330        C331   1.398       .  A
C331        C332   1.411       .  A
C331        C343   1.444       .  S
C332        C333   1.404       .  A
C333        H348   1.083       .  S
C334        C335   1.402       .  A
C334        C339   1.409       .  A
C335        H350   1.085       .  S
C335        C336   1.397       .  A
C336        C337   1.408       .  A
C336        C340   1.444       .  S
C337        C338   1.402       .  A
C338        H351   1.085       .  S
C338        C339   1.397       .  A
C339        C341   1.444       .  S
C340        N344   1.157       .  T
C341        N345   1.157       .  T
C342        N347   1.157       .  T
C343        N346   1.157       .  T
C352        C353   1.406       .  A
C352        C357   1.399       .  A
C352        C366   1.444       .  S
C353        C358   1.480       .  S
C353        C354   1.402       .  A
C354        H373   1.085       .  S
C354        C355   1.402       .  A
C355        C356   1.415       .  A
C355        C367   1.443       .  S
C356        C357   1.408       .  A
C357        H372   1.083       .  S
C358        C359   1.401       .  A
C358        C363   1.409       .  A
C359        H374   1.085       .  S
C359        C360   1.401       .  A
C360        C361   1.413       .  A
C360        C364   1.445       .  S
C361        C362   1.404       .  A
C362        H375   1.085       .  S
C362        C363   1.400       .  A
C363        C365   1.444       .  S
C364        N368   1.157       .  T
C365        N369   1.157       .  T
C366        N371   1.157       .  T
C367        N370   1.157       .  T
C376        C377   1.410       .  A
C376        C381   1.396       .  A
C376        C390   1.444       .  S
C377        C382   1.477       .  S
C377        C378   1.402       .  A
C378        H397   1.085       .  S
C378        C379   1.398       .  A
C379        C380   1.410       .  A
C379        C391   1.444       .  S
C380        C381   1.401       .  A
C381        H396   1.085       .  S
C382        C383   1.397       .  A
C382        C387   1.404       .  A
C383        H398   1.086       .  S
C383        C384   1.396       .  A
C384        C385   1.419       .  A
C384        C388   1.440       .  S
C385        C386   1.411       .  A
C386        H399   1.084       .  S
C386        C387   1.399       .  A
C387        C389   1.444       .  S
C388        N392   1.157       .  T
C389        N393   1.157       .  T
C390        N395   1.157       .  T
C391        N394   1.157       .  T
C400        C401   1.405       .  A
C400        C405   1.398       .  A
C400        C414   1.444       .  S
C401        C406   1.478       .  S
C401        C402   1.399       .  A
C402        H421   1.085       .  S
C402        C403   1.398       .  A
C403        C404   1.419       .  A
C403        C415   1.442       .  S
C404        C405   1.409       .  A
C405        H420   1.082       .  S
C406        C407   1.404       .  A
C406        C411   1.409       .  A
C407        H422   1.085       .  S
C407        C408   1.399       .  A
C408        C409   1.407       .  A
C408        C412   1.444       .  S
C409        C410   1.402       .  A
C410        H423   1.085       .  S
C410        C411   1.396       .  A
C411        C413   1.444       .  S
C412        N416   1.157       .  T
C413        N417   1.157       .  T
C414        N419   1.157       .  T
C415        N418   1.157       .  T
C424        C425   1.408       .  A
C424        C429   1.396       .  A
C424        C438   1.444       .  S
C425        C430   1.474       .  S
C425        C426   1.402       .  A
C426        H445   1.085       .  S
C426        C427   1.400       .  A
C427        C428   1.410       .  A
C427        C439   1.444       .  S
C428        C429   1.403       .  A
C429        H444   1.085       .  S
C430        C431   1.400       .  A
C430        C435   1.406       .  A
C431        H446   1.085       .  S
C431        C432   1.399       .  A
C432        C433   1.415       .  A
C432        C436   1.443       .  S
C433        C434   1.407       .  A
C434        H447   1.085       .  S
C434        C435   1.397       .  A
C435        C437   1.444       .  S
C436        N440   1.157       .  T
C437        N441   1.157       .  T
C438        N443   1.157       .  T
C439        N442   1.157       .  T
C448        C449   1.413       .  A
C448        C453   1.395       .  A
C448        C462   1.445       .  S
C449        C454   1.481       .  S
C449        C450   1.404       .  A
C450        H469   1.084       .  S
C450        C451   1.399       .  A
C451        C452   1.408       .  A
C451        C463   1.443       .  S
C452        C453   1.400       .  A
C453        H468   1.085       .  S
C454        C455   1.402       .  A
C454        C459   1.411       .  A
C455        H470   1.085       .  S
C455        C456   1.395       .  A
C456        C457   1.411       .  A
C456        C460   1.443       .  S
C457        C458   1.405       .  A
C458        H471   1.085       .  S
C458        C459   1.398       .  A
C459        C461   1.445       .  S
C460        N464   1.157       .  T
C461        N465   1.157       .  T
C462        N467   1.157       .  T
C463        N466   1.157       .  T
C472        C473   1.407       .  A
C472        C477   1.395       .  A
C472        C486   1.445       .  S
C473        C478   1.479       .  S
C473        C474   1.402       .  A
C474        H493   1.085       .  S
C474        C475   1.403       .  A
C475        C476   1.415       .  A
C475        C487   1.442       .  S
C476        C477   1.407       .  A
C477        H492   1.085       .  S
C478        C479   1.402       .  A
C478        C483   1.409       .  A
C479        H494   1.085       .  S
C479        C480   1.402       .  A
C480        C481   1.414       .  A
C480        C484   1.443       .  S
C481        C482   1.405       .  A
C482        H495   1.085       .  S
C482        C483   1.396       .  A
C483        C485   1.445       .  S
C484        N488   1.157       .  T
C485        N489   1.157       .  T
C486        N491   1.157       .  T
C487        N490   1.157       .  T
C496        C497   1.408       .  A
C496        C501   1.393       .  A
C496        C510   1.445       .  S
C497        C502   1.473       .  S
C497        C498   1.401       .  A
C498        H517   1.085       .  S
C498        C499   1.399       .  A
C499        C500   1.411       .  A
C499        C511   1.443       .  S
C500        C501   1.405       .  A
C501        H516   1.085       .  S
C502        C503   1.401       .  A
C502        C507   1.408       .  A
C503        H518   1.085       .  S
C503        C504   1.400       .  A
C504        C505   1.413       .  A
C504        C508   1.444       .  S
C505        C506   1.404       .  A
C506        H519   1.085       .  S
C506        C507   1.392       .  A
C507        C509   1.445       .  S
C508        N512   1.157       .  T
C509        N513   1.157       .  T
C510        N515   1.157       .  T
C511        N514   1.157       .  T
C520        C521   1.407       .  A
C520        C525   1.398       .  A
C520        C534   1.444       .  S
C521        C526   1.477       .  S
C521        C522   1.402       .  A
C522        H541   1.085       .  S
C522        C523   1.399       .  A
C523        C524   1.413       .  A
C523        C535   1.444       .  S
C524        C525   1.407       .  A
C525        H540   1.085       .  S
C526        C527   1.399       .  A
C526        C531   1.408       .  A
C527        H542   1.085       .  S
C527        C528   1.397       .  A
C528        C529   1.415       .  A
C528        C532   1.444       .  S
C529        C530   1.406       .  A
C530        H543   1.083       .  S
C530        C531   1.399       .  A
C531        C533   1.444       .  S
C532        N536   1.157       .  T
C533        N537   1.157       .  T
C534        N539   1.157       .  T
C535        N538   1.157       .  T
C544        C545   1.406       .  A
C544        C549   1.396       .  A
C544        C558   1.444       .  S
C545        C550   1.472       .  S
C545        C546   1.400       .  A
C546        H565   1.085       .  S
C546        C547   1.398       .  A
C547        C548   1.412       .  A
C547        C559   1.441       .  S
C548        C549   1.404       .  A
C549        H564   1.085       .  S
C550        C551   1.400       .  A
C550        C555   1.408       .  A
C551        H566   1.085       .  S
C551        C552   1.398       .  A
C552        C553   1.414       .  A
C552        C556   1.445       .  S
C553        C554   1.402       .  A
C554        H567   1.085       .  S
C554        C555   1.396       .  A
C555        C557   1.444       .  S
C556        N560   1.157       .  T
C557        N561   1.157       .  T
C558        N563   1.157       .  T
C559        N562   1.156       .  T
C568        C569   1.409       .  A
C568        C573   1.401       .  A
C568        C582   1.444       .  S
C569        C574   1.473       .  S
C569        C570   1.398       .  A
C570        H589   1.085       .  S
C570        C571   1.394       .  A
C571        C572   1.414       .  A
C571        C583   1.445       .  S
C572        C573   1.405       .  A
C573        H588   1.085       .  S
C574        C575   1.401       .  A
C574        C579   1.408       .  A
C575        H590   1.085       .  S
C575        C576   1.399       .  A
C576        C577   1.413       .  A
C576        C580   1.443       .  S
C577        C578   1.401       .  A
C578        H591   1.085       .  S
C578        C579   1.394       .  A
C579        C581   1.444       .  S
C580        N584   1.157       .  T
C581        N585   1.157       .  T
C582        N587   1.157       .  T
C583        N586   1.157       .  T
C592        C593   1.406       .  A
C592        C597   1.396       .  A
C592        C606   1.444       .  S
C593        C598   1.471       .  S
C593        C594   1.399       .  A
C594        H613   1.085       .  S
C594        C595   1.398       .  A
C595        C596   1.414       .  A
C595        C607   1.443       .  S
C596        C597   1.404       .  A
C597        H612   1.085       .  S
C598        C599   1.398       .  A
C598        C603   1.407       .  A
C599        H614   1.085       .  S
C599        C600   1.394       .  A
C600        C601   1.414       .  A
C600        C604   1.443       .  S
C601        C602   1.404       .  A
C602        H615   1.085       .  S
C602        C603   1.397       .  A
C603        C605   1.443       .  S
C604        N608   1.157       .  T
C605        N609   1.157       .  T
C606        N611   1.157       .  T
C607        N610   1.157       .  T
C616        C617   1.405       .  A
C616        C621   1.399       .  A
C616        C630   1.444       .  S
C617        C622   1.470       .  S
C617        C618   1.397       .  A
C618        H637   1.085       .  S
C618        C619   1.394       .  A
C619        C620   1.417       .  A
C619        C631   1.444       .  S
C620        C621   1.408       .  A
C621        H636   1.083       .  S
C622        C623   1.398       .  A
C622        C627   1.409       .  A
C623        H638   1.085       .  S
C623        C624   1.395       .  A
C624        C625   1.413       .  A
C624        C628   1.445       .  S
C625        C626   1.402       .  A
C626        H639   1.085       .  S
C626        C627   1.398       .  A
C627        C629   1.444       .  S
C628        N632   1.157       .  T
C629        N633   1.157       .  T
C630        N635   1.157       .  T
C631        N634   1.157       .  T
C640        C641   1.409       .  A
C640        C645   1.396       .  A
C640        C654   1.444       .  S
C641        C646   1.478       .  S
C641        C642   1.403       .  A
C642        H661   1.085       .  S
C642        C643   1.400       .  A
C643        C644   1.410       .  A
C643        C655   1.444       .  S
C644        C645   1.403       .  A
C645        H660   1.085       .  S
C646        C647   1.400       .  A
C646        C651   1.409       .  A
C647        H662   1.085       .  S
C647        C648   1.396       .  A
C648        C649   1.412       .  A
C648        C652   1.441       .  S
C649        C650   1.405       .  A
C650        H663   1.085       .  S
C650        C651   1.400       .  A
C651        C653   1.444       .  S
C652        N656   1.156       .  T
C653        N657   1.157       .  T
C654        N659   1.157       .  T
C655        N658   1.157       .  T
C664        C665   1.407       .  A
C664        C669   1.394       .  A
C664        C678   1.444       .  S
C665        C670   1.462       .  S
C665        C666   1.397       .  A
C666        H685   1.085       .  S
C666        C667   1.389       .  A
C667        C668   1.412       .  A
C667        C679   1.445       .  S
C668        C669   1.403       .  A
C669        H684   1.084       .  S
C670        C671   1.398       .  A
C670        C675   1.407       .  A
C671        H686   1.085       .  S
C671        C672   1.389       .  A
C672        C673   1.407       .  A
C672        C676   1.443       .  S
C673        C674   1.402       .  A
C674        H687   1.085       .  S
C674        C675   1.396       .  A
C675        C677   1.444       .  S
C676        N680   1.157       .  T
C677        N681   1.157       .  T
C678        N683   1.157       .  T
C679        N682   1.157       .  T
C688        C689   1.409       .  A
C688        C693   1.398       .  A
C688        C702   1.445       .  S
C689        C694   1.481       .  S
C689        C690   1.402       .  A
C690        H709   1.083       .  S
C690        C691   1.404       .  A
C691        C692   1.415       .  A
C691        C703   1.443       .  S
C692        C693   1.405       .  A
C693        H708   1.084       .  S
C694        C695   1.404       .  A
C694        C699   1.407       .  A
C695        H710   1.084       .  S
C695        C696   1.403       .  A
C696        C697   1.410       .  A
C696        C700   1.443       .  S
C697        C698   1.406       .  A
C698        H711   1.085       .  S
C698        C699   1.398       .  A
C699        C701   1.443       .  S
C700        N704   1.157       .  T
C701        N705   1.157       .  T
C702        N707   1.157       .  T
C703        N706   1.157       .  T
C712        C713   1.405       .  A
C712        C717   1.392       .  A
C712        C726   1.445       .  S
C713        C718   1.473       .  S
C713        C714   1.400       .  A
C714        H733   1.085       .  S
C714        C715   1.400       .  A
C715        C716   1.416       .  A
C715        C727   1.441       .  S
C716        C717   1.409       .  A
C717        H732   1.084       .  S
C718        C719   1.399       .  A
C718        C723   1.411       .  A
C719        H734   1.085       .  S
C719        C720   1.393       .  A
C720        C721   1.410       .  A
C720        C724   1.445       .  S
C721        C722   1.401       .  A
C722        H735   1.085       .  S
C722        C723   1.400       .  A
C723        C725   1.444       .  S
C724        N728   1.157       .  T
C725        N729   1.157       .  T
C726        N731   1.157       .  T
C727        N730   1.157       .  T
C736        C737   1.405       .  A
C736        C741   1.394       .  A
C736        C750   1.445       .  S
C737        C742   1.474       .  S
C737        C738   1.402       .  A
C738        H757   1.085       .  S
C738        C739   1.401       .  A
C739        C740   1.414       .  A
C739        C751   1.444       .  S
C740        C741   1.407       .  A
C741        H756   1.085       .  S
C742        C743   1.399       .  A
C742        C747   1.408       .  A
C743        H758   1.085       .  S
C743        C744   1.396       .  A
C744        C745   1.413       .  A
C744        C748   1.444       .  S
C745        C746   1.406       .  A
C746        H759   1.082       .  S
C746        C747   1.397       .  A
C747        C749   1.444       .  S
C748        N752   1.157       .  T
C749        N753   1.157       .  T
C750        N755   1.157       .  T
C751        N754   1.157       .  T
C760        C761   1.406       .  A
C760        C765   1.396       .  A
C760        C774   1.445       .  S
C761        C766   1.473       .  S
C761        C762   1.398       .  A
C762        H781   1.085       .  S
C762        C763   1.395       .  A
C763        C764   1.417       .  A
C763        C775   1.443       .  S
C764        C765   1.408       .  A
C765        H780   1.082       .  S
C766        C767   1.405       .  A
C766        C771   1.408       .  A
C767        H782   1.085       .  S
C767        C768   1.399       .  A
C768        C769   1.406       .  A
C768        C772   1.443       .  S
C769        C770   1.400       .  A
C770        H783   1.085       .  S
C770        C771   1.391       .  A
C771        C773   1.444       .  S
C772        N776   1.157       .  T
C773        N777   1.157       .  T
C774        N779   1.157       .  T
C775        N778   1.157       .  T
C784        C785   1.408       .  A
C784        C789   1.400       .  A
C784        C798   1.443       .  S
C785        C790   1.477       .  S
C785        C786   1.400       .  A
C786        H805   1.085       .  S
C786        C787   1.396       .  A
C787        C788   1.415       .  A
C787        C799   1.444       .  S
C788        C789   1.405       .  A
C789        H804   1.085       .  S
C790        C791   1.400       .  A
C790        C795   1.407       .  A
C791        H806   1.085       .  S
C791        C792   1.399       .  A
C792        C793   1.414       .  A
C792        C796   1.444       .  S
C793        C794   1.404       .  A
C794        H807   1.085       .  S
C794        C795   1.397       .  A
C795        C797   1.443       .  S
C796        N800   1.157       .  T
C797        N801   1.157       .  T
C798        N803   1.157       .  T
C799        N802   1.157       .  T
