geometry optimzed in LAMMPS
_audit_creation_date              2020-12-01 
_audit_creation_method            'lammps2cif' 
_symmetry_space_group_name_H-M    'P1' 
_symmetry_Int_Tables_number       1 
_symmetry_cell_setting            triclinic 
loop_ 
_symmetry_equiv_pos_as_xyz 
  x,y,z 
_cell_length_a                    39.21101698 
_cell_length_b                    31.508407035463527 
_cell_length_c                    32.59924109122943 
_cell_angle_alpha                 86.23837875966281 
_cell_angle_beta                  82.35964182654266 
_cell_angle_gamma                 86.4183786355065 
loop_ 
_atom_site_label 
_atom_site_type_symbol 
_atom_site_fract_x 
_atom_site_fract_y 
_atom_site_fract_z 
_atom_site_charge 
O1          O  0.47667241  0.01405436  0.10180403    -0.81200
O2          O  0.47235769  0.49518304  0.91522533    -0.65900
O3          O  0.49087156  0.47336604  0.02669921    -1.12500
C4          C  0.07887131  0.06988346  0.98552658     1.05700
O5          O  0.02755145  0.48516508  0.89188602    -0.79100
O6          O  0.07669860  0.47440010  0.94264724    -0.66700
Ni7        Ni  0.45451847  0.47535428  0.07177197     1.34900
C8          C  0.08021515  0.45915699  0.97889128     0.84400
O9          O  0.44570478  0.44236664  0.97721143    -0.79600
O10         O  0.42932901  0.43662191  0.04601654    -0.89900
C11         C  0.49621882  0.48927775  0.88562822     0.84000
O12         O  0.42705787  0.02215864  0.05163108    -0.68100
O13         O  0.07703768  0.05956102  0.94867401    -0.87400
C14         C  0.42460602  0.03892046  0.01562045     0.84800
C15         C  0.42685389  0.42718525  0.00905801     1.06400
H16         H  0.00335760  0.05310303  0.96569709     0.38200
O17         O  0.01437443  0.02483569  0.96771446    -1.10100
O18         O  0.06107827  0.47125828  0.01113899    -0.66700
Ni19       Ni  0.02492388  0.01472092  0.02304266     1.26300
O20         O  0.44450311  0.02774482  0.98371895    -0.66900
O21         O  0.05895543  0.05626357  0.01714533    -0.79200
C22         C  0.00774869  0.00998366  0.10906435     0.84200
O23         O  0.03215035  0.00437421  0.07988411    -0.66400
Ni24       Ni  0.05064364  0.02236563  0.92257455     1.27400
Ni25       Ni  0.48005805  0.48384595  0.97151678     1.26100
H26         H  0.50206663  0.44525001  0.02848384     0.38800
N27         N  0.30318437  0.24415786  0.00158638    -0.36900
N28         N  0.25107711  0.18329580  0.00340287    -0.57500
N29         N  0.19900899  0.25358154  0.00473371    -0.36900
N30         N  0.25201753  0.31469648  0.99915562    -0.57500
C31         C  0.32318292  0.20816572  0.99457910     0.26700
C32         C  0.32366824  0.27724889  0.99203698     0.26700
C33         C  0.18081699  0.22101122  0.99597849     0.26700
C34         C  0.18126392  0.29001733  0.99431935     0.26700
C35         C  0.27781053  0.15572967  0.01010071     0.35300
C36         C  0.22251643  0.16080315  0.01033018     0.35300
C37         C  0.27936108  0.33661979  0.00486731     0.37200
C38         C  0.22393304  0.34166379  0.00560328     0.35300
C39         C  0.35673345  0.21852180  0.98041134    -0.22200
C40         C  0.35703534  0.26213317  0.97877267    -0.22200
C41         C  0.15107099  0.23692734  0.98029389    -0.22200
C42         C  0.15139418  0.28044995  0.97915951    -0.22200
C43         C  0.26625223  0.11534873  0.02098211    -0.23300
C44         C  0.23110589  0.11854890  0.02100974    -0.23200
C45         C  0.26867413  0.37791832  0.01466508    -0.23300
C46         C  0.23346439  0.38115894  0.01500190    -0.23200
C47         C  0.31264263  0.16620284  0.00385964    -0.18600
C48         C  0.31394042  0.32032553  0.99910967    -0.18600
C49         C  0.19027279  0.33170301  0.00012724    -0.18600
C50         C  0.18934903  0.17726339  0.00354741    -0.18600
H51         H  0.37888976  0.19688248  0.97286206     0.14300
H52         H  0.37949202  0.28057997  0.96983556     0.14300
H53         H  0.13108718  0.21905878  0.97071877     0.14300
H54         H  0.13172492  0.30252832  0.96851770     0.14300
H55         H  0.28158775  0.08653012  0.02748722     0.12600
H56         H  0.21390836  0.09268640  0.02751596     0.12600
H57         H  0.28460941  0.40316873  0.02042382     0.12600
H58         H  0.21683791  0.40938509  0.02108237     0.12600
H59         H  0.27843251  0.24583200  0.01749117     0.25900
H60         H  0.22014823  0.25106705  0.02104770     0.25900
C61         C  0.47172258  0.49257859  0.71482916     0.79900
N62         N  0.47135780  0.45620655  0.69464742    -0.78400
C63         C  0.46929202  0.45796484  0.65328230     0.82400
N64         N  0.46913562  0.49647496  0.63177219    -0.78300
C65         C  0.46993529  0.03303655  0.65149594     0.82500
N66         N  0.47144766  0.03077677  0.69294289    -0.80100
C67         C  0.01879308  0.01659118  0.28385146     0.79900
N68         N  0.01773993  0.05280441  0.30471422    -0.78400
C69         C  0.01811068  0.05061026  0.34649545     0.82400
N70         N  0.01917004  0.01188124  0.36740529    -0.78300
C71         C  0.01913204  0.47543422  0.34723998     0.82500
N72         N  0.01941392  0.47821576  0.30548323    -0.80100
O73         O  0.47877081  0.30251175  0.45523742    -0.74700
O74         O  0.46198141  0.21064373  0.53697165    -0.74800
O75         O  0.46167736  0.29746949  0.53784287    -0.74800
O76         O  0.47915097  0.21573350  0.45418458    -0.74900
O77         O  0.03462328  0.21044104  0.46289603    -0.74800
O78         O  0.01720707  0.29258292  0.54645101    -0.74800
O79         O  0.01748868  0.20606964  0.54585790    -0.74800
O80         O  0.03445399  0.29772481  0.46361509    -0.74800
Ni81       Ni  0.46845328  0.25672808  0.49574377     1.25400
Ni82       Ni  0.02795429  0.25152330  0.50490337     1.25400
C83         C  0.00903445  0.31655016  0.44754722     0.87400
C84         C  0.48705357  0.19255280  0.55424186     0.87400
C85         C  0.48670065  0.30941589  0.55517712     0.87400
C86         C  0.00949149  0.19824030  0.44590352     0.87600
C87         C  0.00256326  0.35924742  0.38227306    -0.26600
C88         C  0.01402281  0.35630947  0.42134561    -0.14700
C89         C  0.52734235  0.39259370  0.43581473     0.35900
C90         C  0.52968744  0.43010343  0.41027471    -0.26100
C91         C  0.01827971  0.43331417  0.37105181    -0.15300
C92         C  0.00477327  0.39706459  0.35674152     0.37000
N93         N  0.99226064  0.39886103  0.31712277    -0.89600
H94         H  0.99177268  0.33174030  0.37161936     0.18100
H95         H  0.53993819  0.45746904  0.42187882     0.18100
N96         N  0.53740275  0.39359085  0.47664553    -0.88600
H97         H  0.98027123  0.37092152  0.31328127     0.35500
H98         H  0.01371348  0.39969702  0.29437454     0.40600
H99         H  0.53307430  0.36528705  0.49433985     0.40200
H100        H  0.52158227  0.41695308  0.49226157     0.35100
C101        C  0.49242489  0.16014626  0.38752884    -0.26600
C102        C  0.01469960  0.16220777  0.41775820    -0.14700
C103        C  0.03887871  0.12749363  0.42318000     0.35900
C104        C  0.03961316  0.09189936  0.39937841    -0.26100
C105        C  0.01721387  0.08987411  0.36949419    -0.15300
C106        C  0.49344449  0.12446527  0.36335436     0.37000
N107        N  0.46958506  0.12260737  0.33371608    -0.89600
H108        H  0.47359299  0.18618292  0.38329614     0.18100
H109        H  0.05784158  0.06537203  0.40444464     0.18100
N110        N  0.06212882  0.12645702  0.45365247    -0.88600
H111        H  0.45376798  0.15054543  0.33298778     0.35500
H112        H  0.45341451  0.09782151  0.34386548     0.40600
H113        H  0.04786254  0.13002155  0.48279857     0.40200
H114        H  0.07845623  0.15162026  0.44659447     0.35100
C115        C  0.99679153  0.10278388  0.63678237    -0.26600
C116        C  0.47268699  0.07471409  0.62771608    -0.14700
C117        C  0.45183204  0.08721547  0.59634539     0.35900
C118        C  0.45581782  0.12671900  0.57457658    -0.26100
C119        C  0.48103929  0.15391832  0.58219377    -0.15300
C120        C  0.00151840  0.14201162  0.61405188     0.37000
N121        N  0.02709702  0.16956195  0.62309426    -0.89600
H122        H  0.01266123  0.09355578  0.66102785     0.18100
H123        H  0.43994876  0.13536952  0.55020035     0.18100
N124        N  0.42621045  0.06073429  0.58601118    -0.88600
H125        H  0.04024293  0.15580585  0.64696259     0.35500
H126        H  0.01421300  0.19744625  0.63408501     0.40600
H127        H  0.40969013  0.05287262  0.61295954     0.40200
H128        H  0.43844391  0.03291057  0.57417470     0.35100
C129        C  0.99446564  0.38495587  0.64015467    -0.26600
C130        C  0.47040139  0.41808243  0.63116579    -0.14700
C131        C  0.44927305  0.41300472  0.59995452     0.35900
C132        C  0.45511597  0.37711144  0.57615454    -0.26100
C133        C  0.48046544  0.34501579  0.58356476    -0.15300
C134        C  0.99975795  0.34850409  0.61676723     0.37000
N135        N  0.02420777  0.31491817  0.62717448    -0.89600
H136        H  0.01014735  0.38819992  0.66463983     0.18100
H137        H  0.43966407  0.37451011  0.55131550     0.18100
N138        N  0.42128389  0.44288085  0.59197933    -0.88600
H139        H  0.03319593  0.32032461  0.65507333     0.35500
H140        H  0.04562956  0.31620714  0.60443381     0.40600
H141        H  0.41648875  0.46520255  0.61455246     0.40200
H142        H  0.39887661  0.42596838  0.59518539     0.35100
C143        C  0.35307918  0.10934615  0.97256068    -0.26600
C144        C  0.33997855  0.13193501  0.00729179    -0.14700
C145        C  0.35480872  0.12451339  0.04415447     0.35900
C146        C  0.38276472  0.09478536  0.04583284    -0.26100
C147        C  0.39650263  0.07217101  0.01100947    -0.15300
C148        C  0.38108769  0.07966151  0.97388930     0.37000
N149        N  0.39256070  0.05715143  0.93735082    -0.89600
H150        H  0.34171732  0.11530230  0.94404309     0.18100
H151        H  0.39378938  0.08949385  0.07463126     0.18100
N152        N  0.34146484  0.14732627  0.07992831    -0.88600
H153        H  0.39151079  0.02443778  0.94482584     0.35500
H154        H  0.41791268  0.06450249  0.92649389     0.40600
H155        H  0.36143221  0.16389591  0.08853376     0.40200
H156        H  0.33380058  0.12509537  0.10410925     0.35100
C157        C  0.16597633  0.39477968  0.96173610    -0.26600
C158        C  0.16334407  0.36662984  0.99687713    -0.14700
C159        C  0.13354662  0.36885668  0.02607952     0.35900
C160        C  0.10662863  0.39892016  0.01955788    -0.26100
C161        C  0.10881619  0.42689434  0.98402871    -0.15300
C162        C  0.13923719  0.42519041  0.95506395     0.37000
N163        N  0.14321472  0.45460567  0.91931807    -0.89600
H164        H  0.18887108  0.39257202  0.93918150     0.18100
H165        H  0.08376716  0.40002578  0.04223604     0.18100
N166        N  0.13042088  0.34008158  0.06208637    -0.88600
H167        H  0.16667402  0.44827077  0.90086308     0.35500
H168        H  0.14431827  0.98503933  0.92993042     0.40600
H169        H  0.12640441  0.35811936  0.08826785     0.40200
H170        H  0.10857498  0.32276280  0.06174361     0.35100
C171        C  0.13479672  0.10138598  0.95983023    -0.26600
C172        C  0.10673912  0.09776362  0.99144954    -0.14700
C173        C  0.10681682  0.11932472  0.02824906     0.35900
C174        C  0.13487669  0.14366397  0.03239890    -0.26100
C175        C  0.16243928  0.14718906  0.00053504    -0.15300
C176        C  0.16237532  0.12605433  0.96404445     0.37000
N177        N  0.18998753  0.13051660  0.93081911    -0.89600
H178        H  0.13552360  0.08494972  0.93152784     0.18100
H179        H  0.13492327  0.16092602  0.06006826     0.18100
N180        N  0.07833533  0.11718499  0.06087908    -0.88600
H181        H  0.20100679  0.10015794  0.92463056     0.35500
H182        H  0.17954953  0.14316466  0.90445258     0.40600
H183        H  0.05682144  0.13243292  0.04935920     0.40200
H184        H  0.08288227  0.13419721  0.08591483     0.35100
C185        C  0.35388240  0.37539719  0.96780434    -0.26600
C186        C  0.34202082  0.34887249  0.00230831    -0.14700
C187        C  0.35940664  0.34628192  0.03775918     0.35900
C188        C  0.38784362  0.37070415  0.03802177    -0.26100
C189        C  0.39965216  0.39795960  0.00391884    -0.15300
C190        C  0.38271747  0.39983890  0.96800585     0.37000
N191        N  0.39404247  0.42724656  0.93242887    -0.89600
H192        H  0.34086159  0.37643820  0.94041110     0.18100
H193        H  0.40054317  0.36872047  0.06571205     0.18100
N194        N  0.34874620  0.31977984  0.07428457    -0.88600
H195        H  0.37735580  0.42686479  0.90997865     0.35500
H196        H  0.41785792  0.41448216  0.91898875     0.40600
H197        H  0.32612004  0.30480338  0.07213958     0.40200
H198        H  0.36809066  0.29578349  0.07711066     0.35100
C199        C  0.00121727  0.04917169  0.17318141    -0.26600
C200        C  0.01485471  0.01318533  0.15213047    -0.14700
C201        C  0.53120685  0.47927381  0.17417824     0.35900
C202        C  0.53331040  0.48240890  0.21646933    -0.26100
C203        C  0.01898655  0.01796801  0.23797659    -0.15300
C204        C  0.00323969  0.05217492  0.21570245     0.37000
N205        N  0.98779036  0.08885540  0.23645357    -0.89600
H206        H  0.98831189  0.07485422  0.15638282     0.18100
H207        H  0.54554667  0.45593037  0.23295080     0.18100
N208        N  0.54455504  0.44040004  0.15561390    -0.88600
H209        H  0.97460018  0.10905685  0.21642189     0.35500
H210        H  0.00778716  0.10617792  0.24387303     0.40600
H211        H  0.54098303  0.44039191  0.12452121     0.40200
H212        H  0.53046611  0.41557823  0.17085663     0.35100
C213        C  0.46722041  0.02093493  0.82718926    -0.26600
C214        C  0.48773912  0.48745689  0.84312317    -0.14700
C215        C  0.00128638  0.45434576  0.81762581     0.35900
C216        C  0.49446432  0.45587242  0.77630431    -0.26100
C217        C  0.47533604  0.49044671  0.75961991    -0.15300
C218        C  0.46109711  0.02306164  0.78558681     0.37000
N219        N  0.44059069  0.05824229  0.76969531    -0.89600
H220        H  0.45682765  0.04623382  0.84699573     0.18100
H221        H  0.00528265  0.43070039  0.75659938     0.18100
N222        N  0.02137497  0.41897133  0.83390113    -0.88600
H223        H  0.43255448  0.07969941  0.79265327     0.35500
H224        H  0.41829334  0.04609830  0.76174847     0.40600
H225        H  0.04497133  0.43011276  0.83878433     0.40200
H226        H  0.02718084  0.39591732  0.81200102     0.35100
O227        O  0.47667260  0.51405409  0.10180413    -0.81200
O228        O  0.47235782  0.99518307  0.91522525    -0.65900
O229        O  0.49087149  0.97336614  0.02669923    -1.12500
C230        C  0.07887136  0.56988347  0.98552623     1.05700
O231        O  0.02755170  0.98516501  0.89188611    -0.79100
O232        O  0.07669873  0.97440015  0.94264753    -0.66700
Ni233      Ni  0.45451834  0.97535447  0.07177192     1.34900
C234        C  0.08021519  0.95915695  0.97889156     0.84400
O235        O  0.44570475  0.94236677  0.97721140    -0.79600
O236        O  0.42932892  0.93662206  0.04601649    -0.89900
C237        C  0.49621900  0.98927774  0.88562821     0.84000
O238        O  0.42705796  0.52215850  0.05163129    -0.68100
O239        O  0.07703772  0.55956095  0.94867370    -0.87400
C240        C  0.42460602  0.53892034  0.01562068     0.84800
C241        C  0.42685382  0.92718540  0.00905796     1.06400
H242        H  0.00335762  0.55310311  0.96569692     0.38200
O243        O  0.01437438  0.52483581  0.96771430    -1.10100
O244        O  0.06107824  0.97125812  0.01113925    -0.66700
Ni245      Ni  0.02492389  0.51472105  0.02304247     1.26300
O246        O  0.44450306  0.52774472  0.98371913    -0.66900
O247        O  0.05895545  0.55626370  0.01714502    -0.79200
C248        C  0.00774860  0.50998381  0.10906414     0.84200
O249        O  0.03215034  0.50437438  0.07988398    -0.66400
Ni250      Ni  0.05064354  0.52236563  0.92257433     1.27400
Ni251      Ni  0.48005807  0.98384601  0.97151675     1.26100
H252        H  0.50206655  0.94525012  0.02848392     0.38800
N253        N  0.30318439  0.74415781  0.00158625    -0.36900
N254        N  0.25107718  0.68329569  0.00340290    -0.57500
N255        N  0.19900913  0.75358142  0.00473325    -0.36900
N256        N  0.25201760  0.81469644  0.99915523    -0.57500
C257        C  0.32318296  0.70816562  0.99457930     0.26700
C258        C  0.32366829  0.77724881  0.99203682     0.26700
C259        C  0.18081722  0.72101110  0.99597786     0.26700
C260        C  0.18126409  0.79001721  0.99431884     0.26700
C261        C  0.27781056  0.65572958  0.01010090     0.35300
C262        C  0.22251650  0.66080303  0.01033006     0.35300
C263        C  0.27936114  0.83661977  0.00486691     0.37200
C264        C  0.22393311  0.84166369  0.00560299     0.35300
C265        C  0.35673353  0.71852165  0.98041169    -0.22200
C266        C  0.35703543  0.76213303  0.97877277    -0.22200
C267        C  0.15107134  0.73692721  0.98029299    -0.22200
C268        C  0.15139448  0.78044984  0.97915872    -0.22200
C269        C  0.26625223  0.61534865  0.02098226    -0.23300
C270        C  0.23110591  0.61854878  0.02100972    -0.23200
C271        C  0.26867419  0.87791827  0.01466472    -0.23300
C272        C  0.23346445  0.88115883  0.01500164    -0.23200
C273        C  0.31264265  0.66620276  0.00385996    -0.18600
C274        C  0.31394048  0.82032549  0.99910930    -0.18600
C275        C  0.19027286  0.83170289  0.00012696    -0.18600
C276        C  0.18934917  0.67726328  0.00354700    -0.18600
H277        H  0.37888986  0.69688228  0.97286268     0.14300
H278        H  0.37949214  0.78057980  0.96983571     0.14300
H279        H  0.13108765  0.71905861  0.97071767     0.14300
H280        H  0.13172526  0.80252822  0.96851681     0.14300
H281        H  0.28158774  0.58653006  0.02748742     0.12600
H282        H  0.21390838  0.59268627  0.02751586     0.12600
H283        H  0.28460944  0.90316871  0.02042348     0.12600
H284        H  0.21683796  0.90938495  0.02108220     0.12600
H285        H  0.27843246  0.74583202  0.01749088     0.25900
H286        H  0.22014825  0.75106692  0.02104750     0.25900
C287        C  0.47172298  0.99257850  0.71482902     0.79900
N288        N  0.47135828  0.95620647  0.69464723    -0.78400
C289        C  0.46929242  0.95796479  0.65328212     0.82400
N290        N  0.46913589  0.99647495  0.63177206    -0.78300
C291        C  0.46993508  0.53303658  0.65149601     0.82500
N292        N  0.47144737  0.53077684  0.69294298    -0.80100
C293        C  0.01879256  0.51659080  0.28385152     0.79900
N294        N  0.01773939  0.55280406  0.30471423    -0.78400
C295        C  0.01811036  0.55060999  0.34649543     0.82400
N296        N  0.01917000  0.51188099  0.36740527    -0.78300
C297        C  0.01913201  0.97543454  0.34723992     0.82500
N298        N  0.01941416  0.97821613  0.30548315    -0.80100
O299        O  0.47877097  0.80251166  0.45523740    -0.74700
O300        O  0.46198177  0.71064352  0.53697148    -0.74800
O301        O  0.46167766  0.79746926  0.53784283    -0.74800
O302        O  0.47915122  0.71573343  0.45418444    -0.74900
O303        O  0.03462316  0.71044108  0.46289551    -0.74800
O304        O  0.01720720  0.79258299  0.54645046    -0.74800
O305        O  0.01748868  0.70606970  0.54585738    -0.74800
O306        O  0.03445403  0.79772481  0.46361451    -0.74800
Ni307      Ni  0.46845355  0.75672793  0.49574368     1.25400
Ni308      Ni  0.02795431  0.75152334  0.50490282     1.25400
C309        C  0.00903449  0.81655031  0.44754677     0.87400
C310        C  0.48705395  0.69255260  0.55424166     0.87400
C311        C  0.48670099  0.80941577  0.55517694     0.87400
C312        C  0.00949133  0.69824042  0.44590303     0.87600
C313        C  0.00256231  0.85924814  0.38227320    -0.26600
C314        C  0.01402287  0.85630965  0.42134520    -0.14700
C315        C  0.52734291  0.89259350  0.43581435     0.35900
C316        C  0.52968790  0.93010323  0.41027434    -0.26100
C317        C  0.01827961  0.93331447  0.37105161    -0.15300
C318        C  0.00477220  0.89706538  0.35674177     0.37000
N319        N  0.99225850  0.89886239  0.31712362    -0.89600
H320        H  0.99177100  0.83174137  0.37161986     0.18100
H321        H  0.53993912  0.95746868  0.42187816     0.18100
N322        N  0.53740395  0.89359050  0.47664484    -0.88600
H323        H  0.98026851  0.87092319  0.31328251     0.35500
H324        H  0.01371085  0.89969807  0.29437468     0.40600
H325        H  0.53307541  0.86528680  0.49433929     0.40200
H326        H  0.52158389  0.91695295  0.49226111     0.35100
C327        C  0.49242526  0.66014648  0.38752848    -0.26600
C328        C  0.01469936  0.66220774  0.41775790    -0.14700
C329        C  0.03887787  0.62749315  0.42318049     0.35900
C330        C  0.03961228  0.59189883  0.39937898    -0.26100
C331        C  0.01721353  0.58987392  0.36949411    -0.15300
C332        C  0.49344477  0.62446547  0.36335404     0.37000
N333        N  0.46958542  0.62260775  0.33371562    -0.89600
H334        H  0.47359354  0.68618331  0.38329564     0.18100
H335        H  0.05784028  0.56537120  0.40444578     0.18100
N336        N  0.06212735  0.62645615  0.45365369    -0.88600
H337        H  0.45376850  0.65054597  0.33298720     0.35500
H338        H  0.45341470  0.59782206  0.34386493     0.40600
H339        H  0.04786060  0.63002115  0.48279945     0.40200
H340        H  0.07845524  0.65161894  0.44659599     0.35100
C341        C  0.99679103  0.60278446  0.63678238    -0.26600
C342        C  0.47268698  0.57471402  0.62771603    -0.14700
C343        C  0.45183215  0.58721540  0.59634524     0.35900
C344        C  0.45581809  0.62671888  0.57457638    -0.26100
C345        C  0.48103964  0.65391810  0.58219354    -0.15300
C346        C  0.00151786  0.64201219  0.61405186     0.37000
N347        N  0.02709592  0.66956301  0.62309484    -0.89600
H348        H  0.01266036  0.59355675  0.66102833     0.18100
H349        H  0.43994906  0.63536944  0.55020014     0.18100
N350        N  0.42621051  0.56073433  0.58601101    -0.88600
H351        H  0.04024154  0.65580723  0.64696355     0.35500
H352        H  0.01421142  0.69744717  0.63408529     0.40600
H353        H  0.40969008  0.55287279  0.61295930     0.40200
H354        H  0.43844394  0.53291054  0.57417460     0.35100
C355        C  0.99446593  0.88495584  0.64015428    -0.26600
C356        C  0.47040176  0.91808235  0.63116559    -0.14700
C357        C  0.44927337  0.91300460  0.59995436     0.35900
C358        C  0.45511627  0.87711131  0.57615439    -0.26100
C359        C  0.48046579  0.84501569  0.58356455    -0.15300
C360        C  0.99975824  0.84850414  0.61676672     0.37000
N361        N  0.02420813  0.81491824  0.62717384    -0.89600
H362        H  0.01014767  0.88819982  0.66463942     0.18100
H363        H  0.43966432  0.87450993  0.55131541     0.18100
N364        N  0.42128416  0.94288068  0.59197925    -0.88600
H365        H  0.03319643  0.82032466  0.65507259     0.35500
H366        H  0.04562983  0.81620726  0.60443304     0.40600
H367        H  0.41648905  0.96520239  0.61455236     0.40200
H368        H  0.39887689  0.92596816  0.59518540     0.35100
C369        C  0.35307937  0.60934638  0.97256091    -0.26600
C370        C  0.33997853  0.63193490  0.00729215    -0.14700
C371        C  0.35480844  0.62451293  0.04415497     0.35900
C372        C  0.38276443  0.59478488  0.04583334    -0.26100
C373        C  0.39650259  0.57217088  0.01100981    -0.15300
C374        C  0.38108787  0.57966174  0.97388951     0.37000
N375        N  0.39256112  0.55715209  0.93735083    -0.89600
H376        H  0.34171771  0.61530280  0.94404323     0.18100
H377        H  0.39378889  0.58949309  0.07463187     0.18100
N378        N  0.34146432  0.64732551  0.07992893    -0.88600
H379        H  0.39151119  0.52443838  0.94482552     0.35500
H380        H  0.41791312  0.56450323  0.92649418     0.40600
H381        H  0.36143161  0.66389507  0.08853470     0.40200
H382        H  0.33379996  0.62509442  0.10410965     0.35100
C383        C  0.16597651  0.89478006  0.96173642    -0.26600
C384        C  0.16334408  0.86662968  0.99687706    -0.14700
C385        C  0.13354649  0.86885611  0.02607927     0.35900
C386        C  0.10662852  0.89891972  0.01955784    -0.26100
C387        C  0.10881625  0.92689436  0.98402899    -0.15300
C388        C  0.13923740  0.92519088  0.95506447     0.37000
N389        N  0.14321512  0.95460671  0.91931903    -0.89600
H390        H  0.18887138  0.89257275  0.93918197     0.18100
H391        H  0.08376694  0.90002505  0.04223584     0.18100
N392        N  0.13042059  0.84008046  0.06208573    -0.88600
H393        H  0.16667456  0.94827222  0.90086422     0.35500
H394        H  0.14431814  0.48503846  0.92992891     0.40600
H395        H  0.12640394  0.85811777  0.08826751     0.40200
H396        H  0.10857473  0.82276174  0.06174245     0.35100
C397        C  0.13479692  0.60138569  0.95982992    -0.26600
C398        C  0.10673920  0.59776361  0.99144912    -0.14700
C399        C  0.10681680  0.61932498  0.02824851     0.35900
C400        C  0.13487669  0.64366416  0.03239837    -0.26100
C401        C  0.16243941  0.64718898  0.00053464    -0.15300
C402        C  0.16237553  0.62605405  0.96404414     0.37000
N403        N  0.18998781  0.63051617  0.93081887    -0.89600
H404        H  0.13552386  0.58494924  0.93152764     0.18100
H405        H  0.13492320  0.66092638  0.06006765     0.18100
N406        N  0.07833517  0.61718553  0.06087837    -0.88600
H407        H  0.20100702  0.60015748  0.92463040     0.35500
H408        H  0.17954986  0.64316416  0.90445228     0.40600
H409        H  0.05682135  0.63243342  0.04935828     0.40200
H410        H  0.08288204  0.63419789  0.08591406     0.35100
C411        C  0.35388280  0.87539674  0.96780382    -0.26600
C412        C  0.34202086  0.84887248  0.00230797    -0.14700
C413        C  0.35940627  0.84628242  0.03775915     0.35900
C414        C  0.38784321  0.87070469  0.03802187    -0.26100
C415        C  0.39965209  0.89795974  0.00391876    -0.15300
C416        C  0.38271780  0.89983855  0.96800548     0.37000
N417        N  0.39404321  0.92724568  0.93242826    -0.89600
H418        H  0.34086232  0.87643734  0.94041034     0.18100
H419        H  0.40054246  0.86872136  0.06571237     0.18100
N420        N  0.34874545  0.81978081  0.07428474    -0.88600
H421        H  0.37735683  0.92686353  0.90997774     0.35500
H422        H  0.41785878  0.91448112  0.91898869     0.40600
H423        H  0.32611937  0.80480426  0.07213960     0.40200
H424        H  0.36808986  0.79578452  0.07711144     0.35100
C425        C  0.00121679  0.54917148  0.17318143    -0.26600
C426        C  0.01485439  0.51318525  0.15213039    -0.14700
C427        C  0.53120684  0.97927414  0.17417825     0.35900
C428        C  0.53331029  0.98240914  0.21646938    -0.26100
C429        C  0.01898591  0.51796761  0.23797665    -0.15300
C430        C  0.00323900  0.55217452  0.21570255     0.37000
N431        N  0.98778952  0.58885490  0.23645372    -0.89600
H432        H  0.98831147  0.57485407  0.15638286     0.18100
H433        H  0.54554680  0.95593073  0.23295079     0.18100
N434        N  0.54455548  0.94040061  0.15561378    -0.88600
H435        H  0.97459931  0.60905633  0.21642207     0.35500
H436        H  0.00778623  0.60617750  0.24387331     0.40600
H437        H  0.54098346  0.94039245  0.12452106     0.40200
H438        H  0.53046688  0.91557851  0.17085641     0.35100
C439        C  0.46722036  0.52093514  0.82718930    -0.26600
C440        C  0.48773942  0.98745690  0.84312308    -0.14700
C441        C  0.00128742  0.95434594  0.81762550     0.35900
C442        C  0.49446495  0.95587254  0.77630411    -0.26100
C443        C  0.47533640  0.99044661  0.75961978    -0.15300
C444        C  0.46109702  0.52306190  0.78558687     0.37000
N445        N  0.44059086  0.55824278  0.76969533    -0.89600
H446        H  0.45682783  0.54623417  0.84699571     0.18100
H447        H  0.00528404  0.93070084  0.75659892     0.18100
N448        N  0.02137703  0.91897224  0.83390037    -0.88600
H449        H  0.43255486  0.57969999  0.79265324     0.35500
H450        H  0.41829338  0.54609905  0.76174856     0.40600
H451        H  0.04497320  0.93011462  0.83878309     0.40200
H452        H  0.02718318  0.89591834  0.81200020     0.35100
O453        O  0.97667148  0.01405267  0.10180378    -0.81200
O454        O  0.97235781  0.49518456  0.91522433    -0.65900
O455        O  0.99087148  0.47336594  0.02669805    -1.12500
C456        C  0.57887119  0.06988357  0.98552616     1.05700
O457        O  0.52755131  0.48516446  0.89188649    -0.79100
O458        O  0.57669851  0.47440036  0.94264720    -0.66700
Ni459      Ni  0.95451828  0.47535265  0.07177074     1.34900
C460        C  0.58021521  0.45915657  0.97889094     0.84400
O461        O  0.94570454  0.44236737  0.97720960    -0.79600
O462        O  0.92932984  0.43661962  0.04601477    -0.89900
C463        C  0.99621904  0.48927909  0.88562738     0.84000
O464        O  0.92705701  0.02215647  0.05163038    -0.68100
O465        O  0.57703713  0.05956148  0.94867359    -0.87400
C466        C  0.92460558  0.03891934  0.01562003     0.84800
C467        C  0.92685431  0.42718432  0.00905595     1.06400
H468        H  0.50335743  0.05310265  0.96569761     0.38200
O469        O  0.51437431  0.02483541  0.96771487    -1.10100
O470        O  0.56107844  0.47125745  0.01113895    -0.66700
Ni471      Ni  0.52492424  0.01472076  0.02304292     1.26300
O472        O  0.94450328  0.02774505  0.98371852    -0.66900
O473        O  0.55895587  0.05626311  0.01714509    -0.79200
C474        C  0.50774960  0.00998452  0.10906453     0.84200
O475        O  0.53215110  0.00437431  0.07988425    -0.66400
Ni476      Ni  0.55064320  0.02236555  0.92257460     1.27400
Ni477      Ni  0.98005803  0.48384655  0.97151567     1.26100
H478        H  0.00206681  0.44525009  0.02848218     0.38800
N479        N  0.80318451  0.24415669  0.00158484    -0.36900
N480        N  0.75107693  0.18329490  0.00340290    -0.57500
N481        N  0.69900929  0.25358102  0.00473194    -0.36900
N482        N  0.75201818  0.31469568  0.99915211    -0.57500
C483        C  0.82318284  0.20816427  0.99457811     0.26700
C484        C  0.82366857  0.27724742  0.99203452     0.26700
C485        C  0.68081689  0.22101059  0.99597794     0.26700
C486        C  0.68126422  0.29001667  0.99431730     0.26700
C487        C  0.77781028  0.15572854  0.01010035     0.35300
C488        C  0.72251624  0.16080233  0.01032980     0.35300
C489        C  0.77936186  0.33661903  0.00486324     0.37200
C490        C  0.72393387  0.34166335  0.00559906     0.35300
C491        C  0.85673338  0.21851990  0.98040979    -0.22200
C492        C  0.85703553  0.26213127  0.97877020    -0.22200
C493        C  0.65107058  0.23692652  0.98029391    -0.22200
C494        C  0.65139402  0.28044912  0.97915865    -0.22200
C495        C  0.76625191  0.11534752  0.02098105    -0.23300
C496        C  0.73110560  0.11854785  0.02100863    -0.23200
C497        C  0.76867518  0.37791797  0.01465975    -0.23300
C498        C  0.73346547  0.38115880  0.01499644    -0.23200
C499        C  0.81264237  0.16620157  0.00385932    -0.18600
C500        C  0.81394108  0.32032430  0.99910633    -0.18600
C501        C  0.69027347  0.33170246  0.00012393    -0.18600
C502        C  0.68934890  0.17726283  0.00354723    -0.18600
H503        H  0.87888952  0.19688028  0.97286064     0.14300
H504        H  0.87949227  0.28057780  0.96983239     0.14300
H505        H  0.63108639  0.21905789  0.97071974     0.14300
H506        H  0.63172461  0.30252738  0.96851705     0.14300
H507        H  0.78158739  0.08652872  0.02748556     0.12600
H508        H  0.71390806  0.09268531  0.02751425     0.12600
H509        H  0.78461059  0.40316851  0.02041782     0.12600
H510        H  0.71683916  0.40938523  0.02107616     0.12600
H511        H  0.77843274  0.24583133  0.01748985     0.25900
H512        H  0.72014886  0.25106682  0.02104537     0.25900
C513        C  0.97172285  0.49257947  0.71482840     0.79900
N514        N  0.97135800  0.45620723  0.69464703    -0.78400
C515        C  0.96929253  0.45796512  0.65328188     0.82400
N516        N  0.96913648  0.49647499  0.63177137    -0.78300
C517        C  0.96993589  0.03303665  0.65149519     0.82500
N518        N  0.97144779  0.03077719  0.69294225    -0.80100
C519        C  0.51879427  0.01658987  0.28385178     0.79900
N520        N  0.51774128  0.05280291  0.30471478    -0.78400
C521        C  0.51811232  0.05060850  0.34649597     0.82400
N522        N  0.51917203  0.01187930  0.36740546    -0.78300
C523        C  0.51913440  0.47543270  0.34723977     0.82500
N524        N  0.51941614  0.47821464  0.30548305    -0.80100
O525        O  0.97876969  0.30251293  0.45523837    -0.74700
O526        O  0.96198223  0.21064369  0.53697157    -0.74800
O527        O  0.96167761  0.29746935  0.53784387    -0.74800
O528        O  0.97915045  0.21573478  0.45418445    -0.74900
O529        O  0.53462351  0.21043920  0.46289761    -0.74800
O530        O  0.51720655  0.29258258  0.54645122    -0.74800
O531        O  0.51748757  0.20606938  0.54585931    -0.74800
O532        O  0.53445484  0.29772302  0.46361537    -0.74800
Ni533      Ni  0.96845314  0.25672863  0.49574426     1.25400
Ni534      Ni  0.52795414  0.25152224  0.50490427     1.25400
C535        C  0.50903576  0.31654849  0.44754670     0.87400
C536        C  0.98705483  0.19255266  0.55424088     0.87400
C537        C  0.98670115  0.30941592  0.55517754     0.87400
C538        C  0.50949197  0.19823858  0.44590455     0.87600
C539        C  0.50256664  0.35924523  0.38227163    -0.26600
C540        C  0.51402483  0.35630758  0.42134493    -0.14700
C541        C  0.02734107  0.39259541  0.43581481     0.35900
C542        C  0.02968602  0.43010506  0.41027463    -0.26100
C543        C  0.51828227  0.43331239  0.37105127    -0.15300
C544        C  0.50477715  0.39706237  0.35674004     0.37000
N545        N  0.49226651  0.39885824  0.31712015    -0.89600
H546        H  0.49177678  0.33173789  0.37161739     0.18100
H547        H  0.03993756  0.45747048  0.42187811     0.18100
N548        N  0.03740237  0.39359247  0.47664517    -0.88600
H549        H  0.48027808  0.37091827  0.31327774     0.35500
H550        H  0.51372026  0.39969479  0.29437325     0.40600
H551        H  0.03307356  0.36528892  0.49433980     0.40200
H552        H  0.02158261  0.41695520  0.49226139     0.35100
C553        C  0.99242229  0.16014702  0.38752971    -0.26600
C554        C  0.51470038  0.16220581  0.41775948    -0.14700
C555        C  0.53887804  0.12749058  0.42318324     0.35900
C556        C  0.53961272  0.09189635  0.39938150    -0.26100
C557        C  0.51721525  0.08987228  0.36949504    -0.15300
C558        C  0.99344146  0.12446581  0.36335564     0.37000
N559        N  0.96957993  0.12260622  0.33372009    -0.89600
H560        H  0.97358921  0.18618273  0.38329860     0.18100
H561        H  0.55783999  0.06536820  0.40444928     0.18100
N562        N  0.56212640  0.12645290  0.45365776    -0.88600
H563        H  0.95376173  0.15054343  0.33299323     0.35500
H564        H  0.95341076  0.09781942  0.34387118     0.40600
H565        H  0.54785880  0.13001831  0.48280296     0.40200
H566        H  0.57845482  0.15161524  0.44660083     0.35100
C567        C  0.49678999  0.10278450  0.63678382    -0.26600
C568        C  0.97268817  0.07471383  0.62771493    -0.14700
C569        C  0.95183352  0.08721508  0.59634394     0.35900
C570        C  0.95581953  0.12671851  0.57457504    -0.26100
C571        C  0.98104106  0.15391773  0.58219227    -0.15300
C572        C  0.50151643  0.14201250  0.61405364     0.37000
N573        N  0.52709442  0.16956342  0.62309661    -0.89600
H574        H  0.51265975  0.09355651  0.66102927     0.18100
H575        H  0.93995051  0.13536909  0.55019879     0.18100
N576        N  0.92621198  0.06073393  0.58600956    -0.88600
H577        H  0.54024012  0.15580763  0.64696523     0.35500
H578        H  0.51420985  0.19744748  0.63408720     0.40600
H579        H  0.90969140  0.05287250  0.61295776     0.40200
H580        H  0.93844546  0.03291007  0.57417335     0.35100
C581        C  0.49446447  0.38495518  0.64015514    -0.26600
C582        C  0.97040197  0.41808257  0.63116577    -0.14700
C583        C  0.94927317  0.41300430  0.59995514     0.35900
C584        C  0.95511610  0.37711096  0.57615533    -0.26100
C585        C  0.98046611  0.34501584  0.58356506    -0.15300
C586        C  0.49975666  0.34850343  0.61676763     0.37000
N587        N  0.52420570  0.31491686  0.62717560    -0.89600
H588        H  0.51014580  0.38819871  0.66464078     0.18100
H589        H  0.93966381  0.37450918  0.55131676     0.18100
N590        N  0.92128357  0.44287996  0.59198044    -0.88600
H591        H  0.53319350  0.32032303  0.65507472     0.35500
H592        H  0.54562785  0.31620518  0.60443541     0.40600
H593        H  0.91648886  0.46520219  0.61455306     0.40200
H594        H  0.89887639  0.42596717  0.59518761     0.35100
C595        C  0.85307891  0.10934512  0.97256031    -0.26600
C596        C  0.83997810  0.13193362  0.00729156    -0.14700
C597        C  0.85480794  0.12451160  0.04415444     0.35900
C598        C  0.88276383  0.09478346  0.04583287    -0.26100
C599        C  0.89650203  0.07216963  0.01100929    -0.15300
C600        C  0.88108740  0.07966052  0.97388894     0.37000
N601        N  0.89256077  0.05715098  0.93735021    -0.89600
H602        H  0.84171731  0.11530163  0.94404259     0.18100
H603        H  0.89378828  0.08949160  0.07463140     0.18100
N604        N  0.84146393  0.14732433  0.07992834    -0.88600
H605        H  0.89151107  0.02443724  0.94482484     0.35500
H606        H  0.91791272  0.06450238  0.92649355     0.40600
H607        H  0.86143130  0.16389378  0.08853406     0.40200
H608        H  0.83379950  0.12509333  0.10410912     0.35100
C609        C  0.66597522  0.39477693  0.96173161    -0.26600
C610        C  0.66334470  0.36662916  0.99687411    -0.14700
C611        C  0.63354869  0.36885760  0.02607854     0.35900
C612        C  0.60663046  0.39892110  0.01955783    -0.26100
C613        C  0.60881635  0.42689361  0.98402743    -0.15300
C614        C  0.63923584  0.42518752  0.95506017     0.37000
N615        N  0.64321167  0.45460039  0.91931233    -0.89600
H616        H  0.68886882  0.39256774  0.93917535     0.18100
H617        H  0.58377017  0.40002805  0.04223774     0.18100
N618        N  0.63042470  0.34008415  0.06208666    -0.88600
H619        H  0.66666975  0.44826371  0.90085551     0.35500
H620        H  0.64431688  0.98503417  0.92992129     0.40600
H621        H  0.62640999  0.35812324  0.08826726     0.40200
H622        H  0.60857834  0.32276545  0.06174667     0.35100
C623        C  0.63479529  0.10138857  0.95982853    -0.26600
C624        C  0.60673883  0.09776394  0.99144904    -0.14700
C625        C  0.60681770  0.11932270  0.02824977     0.35900
C626        C  0.63487774  0.14366155  0.03239966    -0.26100
C627        C  0.66243922  0.14718867  0.00053470    -0.15300
C628        C  0.66237397  0.12605667  0.96404283     0.37000
N629        N  0.68998490  0.13052162  0.93081631    -0.89600
H630        H  0.63552120  0.08495432  0.93152513     0.18100
H631        H  0.63492526  0.16092178  0.06006997     0.18100
N632        N  0.57833725  0.11718094  0.06088101    -0.88600
H633        H  0.70100421  0.10016362  0.92462499     0.35500
H634        H  0.67954560  0.14317161  0.90445133     0.40600
H635        H  0.55682275  0.13242954  0.04936307     0.40200
H636        H  0.58288505  0.13419151  0.08591748     0.35100
C637        C  0.85388417  0.37539465  0.96780066    -0.26600
C638        C  0.84202165  0.34887098  0.00230499    -0.14700
C639        C  0.85940653  0.34628137  0.03775655     0.35900
C640        C  0.88784352  0.37070351  0.03801943    -0.26100
C641        C  0.89965284  0.39795831  0.00391627    -0.15300
C642        C  0.88271907  0.39983657  0.96800259     0.37000
N643        N  0.89404481  0.42724336  0.93242525    -0.89600
H644        H  0.84086408  0.37643486  0.94040690     0.18100
H645        H  0.90054231  0.36872046  0.06571026     0.18100
N646        N  0.84874500  0.31978057  0.07428246    -0.88600
H647        H  0.87735878  0.42686081  0.90997440     0.35500
H648        H  0.91786058  0.41447881  0.91898626     0.40600
H649        H  0.82611897  0.30480403  0.07213707     0.40200
H650        H  0.86808922  0.29578424  0.07711013     0.35100
C651        C  0.50121926  0.04917227  0.17318170    -0.26600
C652        C  0.51485575  0.01318561  0.15213064    -0.14700
C653        C  0.03120648  0.47927465  0.17417806     0.35900
C654        C  0.03330976  0.48241009  0.21646921    -0.26100
C655        C  0.51898750  0.01796707  0.23797691    -0.15300
C656        C  0.50324157  0.05217484  0.21570287     0.37000
N657        N  0.48779315  0.08885567  0.23645413    -0.89600
H658        H  0.48831468  0.07485553  0.15638314     0.18100
H659        H  0.04554700  0.45593235  0.23295071     0.18100
N660        N  0.04455637  0.44040157  0.15561362    -0.88600
H661        H  0.47460336  0.10905772  0.21642253     0.35500
H662        H  0.50779040  0.10617735  0.24387365     0.40600
H663        H  0.04098420  0.44039295  0.12452101     0.40200
H664        H  0.03046870  0.41557878  0.17085648     0.35100
C665        C  0.96721944  0.02093498  0.82718889    -0.26600
C666        C  0.98773953  0.48745838  0.84312222    -0.14700
C667        C  0.50128532  0.45434387  0.81762693     0.35900
C668        C  0.99446536  0.45587414  0.77630324    -0.26100
C669        C  0.97533641  0.49044789  0.75961904    -0.15300
C670        C  0.96109593  0.02306145  0.78558652     0.37000
N671        N  0.94058813  0.05824095  0.76969537    -0.89600
H672        H  0.95682574  0.04623324  0.84699564     0.18100
H673        H  0.50528110  0.43069834  0.75660059     0.18100
N674        N  0.52137320  0.41896889  0.83390248    -0.88600
H675        H  0.93255113  0.07969761  0.79265351     0.35500
H676        H  0.91829131  0.04609556  0.76174856     0.40600
H677        H  0.54496964  0.43010969  0.83878621     0.40200
H678        H  0.52717894  0.39591487  0.81200237     0.35100
O679        O  0.97667145  0.51405297  0.10180335    -0.81200
O680        O  0.97235804  0.99518432  0.91522433    -0.65900
O681        O  0.99087145  0.97336587  0.02669820    -1.12500
C682        C  0.57887123  0.56988353  0.98552605     1.05700
O683        O  0.52755145  0.98516433  0.89188664    -0.79100
O684        O  0.57669860  0.97440041  0.94264742    -0.66700
Ni685      Ni  0.95451819  0.97535273  0.07177083     1.34900
C686        C  0.58021524  0.95915667  0.97889119     0.84400
O687        O  0.94570470  0.94236716  0.97720958    -0.79600
O688        O  0.92932961  0.93662002  0.04601471    -0.89900
C689        C  0.99621931  0.98927890  0.88562741     0.84000
O690        O  0.92705673  0.52215611  0.05163042    -0.68100
O691        O  0.57703712  0.55956144  0.94867349    -0.87400
C692        C  0.92460541  0.53891928  0.01562016     0.84800
C693        C  0.92685427  0.92718444  0.00905593     1.06400
H694        H  0.50335738  0.55310260  0.96569763     0.38200
O695        O  0.51437428  0.52483538  0.96771484    -1.10100
O696        O  0.56107840  0.97125756  0.01113915    -0.66700
Ni697      Ni  0.52492432  0.51472066  0.02304286     1.26300
O698        O  0.94450326  0.52774529  0.98371864    -0.66900
O699        O  0.55895596  0.55626301  0.01714500    -0.79200
C700        C  0.50774983  0.50998431  0.10906449     0.84200
O701        O  0.53215127  0.50437414  0.07988414    -0.66400
Ni702      Ni  0.55064312  0.52236558  0.92257450     1.27400
Ni703      Ni  0.98005814  0.98384639  0.97151574     1.26100
H704        H  0.00206675  0.94524993  0.02848241     0.38800
N705        N  0.80318455  0.74415674  0.00158508    -0.36900
N706        N  0.75107694  0.68329505  0.00340267    -0.57500
N707        N  0.69900932  0.75358113  0.00473186    -0.36900
N708        N  0.75201819  0.81469573  0.99915247    -0.57500
C709        C  0.82318283  0.70816435  0.99457822     0.26700
C710        C  0.82366858  0.77724748  0.99203476     0.26700
C711        C  0.68081695  0.72101079  0.99597761     0.26700
C712        C  0.68126424  0.79001685  0.99431740     0.26700
C713        C  0.77781023  0.65572867  0.01010029     0.35300
C714        C  0.72251622  0.66080250  0.01032946     0.35300
C715        C  0.77936187  0.83661900  0.00486381     0.37200
C716        C  0.72393387  0.84166336  0.00559961     0.35300
C717        C  0.85673334  0.71851999  0.98040977    -0.22200
C718        C  0.85703551  0.76213135  0.97877025    -0.22200
C719        C  0.65107067  0.73692683  0.98029359    -0.22200
C720        C  0.65139406  0.78044942  0.97915861    -0.22200
C721        C  0.76625183  0.61534765  0.02098097    -0.23300
C722        C  0.73110554  0.61854803  0.02100836    -0.23200
C723        C  0.76867517  0.87791784  0.01466067    -0.23300
C724        C  0.73346545  0.88115870  0.01499734    -0.23200
C725        C  0.81264233  0.66620167  0.00385942    -0.18600
C726        C  0.81394110  0.82032431  0.99910676    -0.18600
C727        C  0.69027347  0.83170256  0.00012433    -0.18600
C728        C  0.68934891  0.67726302  0.00354680    -0.18600
H729        H  0.87888944  0.69688039  0.97286045     0.14300
H730        H  0.87949225  0.78057788  0.96983236     0.14300
H731        H  0.63108652  0.71905824  0.97071930     0.14300
H732        H  0.63172464  0.80252773  0.96851710     0.14300
H733        H  0.78158727  0.58652884  0.02748559     0.12600
H734        H  0.71390795  0.59268553  0.02751393     0.12600
H735        H  0.78461058  0.90316829  0.02041898     0.12600
H736        H  0.71683912  0.90938507  0.02107728     0.12600
H737        H  0.77843280  0.74583132  0.01749023     0.25900
H738        H  0.72014885  0.75106679  0.02104536     0.25900
C739        C  0.97172279  0.99257901  0.71482858     0.79900
N740        N  0.97135817  0.95620686  0.69464700    -0.78400
C741        C  0.96929270  0.95796496  0.65328185     0.82400
N742        N  0.96913652  0.99647494  0.63177153    -0.78300
C743        C  0.96993597  0.53303681  0.65149483     0.82500
N744        N  0.97144795  0.53077754  0.69294187    -0.80100
C745        C  0.51879468  0.51658985  0.28385164     0.79900
N746        N  0.51774146  0.55280289  0.30471467    -0.78400
C747        C  0.51811236  0.55060851  0.34649587     0.82400
N748        N  0.51917215  0.51187931  0.36740538    -0.78300
C749        C  0.51913406  0.97543272  0.34723985     0.82500
N750        N  0.51941564  0.97821467  0.30548317    -0.80100
O751        O  0.97876970  0.80251318  0.45523800    -0.74700
O752        O  0.96198223  0.71064381  0.53697103    -0.74800
O753        O  0.96167771  0.79746946  0.53784348    -0.74800
O754        O  0.97915033  0.71573503  0.45418390    -0.74900
O755        O  0.53462377  0.71043911  0.46289742    -0.74800
O756        O  0.51720691  0.79258253  0.54645096    -0.74800
O757        O  0.51748794  0.70606925  0.54585913    -0.74800
O758        O  0.53445505  0.79772293  0.46361513    -0.74800
Ni759      Ni  0.96845313  0.75672882  0.49574380     1.25400
Ni760      Ni  0.52795444  0.75152214  0.50490405     1.25400
C761        C  0.50903590  0.81654844  0.44754662     0.87400
C762        C  0.98705482  0.69255275  0.55424032     0.87400
C763        C  0.98670129  0.80941602  0.55517707     0.87400
C764        C  0.50949221  0.69823853  0.44590438     0.87600
C765        C  0.50256603  0.85924546  0.38227193    -0.26600
C766        C  0.51402488  0.85630756  0.42134487    -0.14700
C767        C  0.02734206  0.89259518  0.43581397     0.35900
C768        C  0.02968694  0.93010485  0.41027385    -0.26100
C769        C  0.51828202  0.93331242  0.37105129    -0.15300
C770        C  0.50477632  0.89706263  0.35674041     0.37000
N771        N  0.49226484  0.89885880  0.31712100    -0.89600
H772        H  0.49177578  0.83173827  0.37161794     0.18100
H773        H  0.03993921  0.95746995  0.42187696     0.18100
N774        N  0.03740434  0.89359189  0.47664387    -0.88600
H775        H  0.48027605  0.87091900  0.31327890     0.35500
H776        H  0.51371821  0.89969521  0.29437354     0.40600
H777        H  0.03307527  0.86528848  0.49433867     0.40200
H778        H  0.02158533  0.91695500  0.49226047     0.35100
C779        C  0.99242256  0.66014734  0.38752881    -0.26600
C780        C  0.51470059  0.66220579  0.41775932    -0.14700
C781        C  0.53887801  0.62749036  0.42318332     0.35900
C782        C  0.53961265  0.59189616  0.39938158    -0.26100
C783        C  0.51721532  0.58987229  0.36949493    -0.15300
C784        C  0.99344170  0.62446606  0.36335481     0.37000
N785        N  0.96958068  0.62260689  0.33371859    -0.89600
H786        H  0.97358993  0.68618342  0.38329715     0.18100
H787        H  0.55783978  0.56536788  0.40444950     0.18100
N788        N  0.56212613  0.62645244  0.45365813    -0.88600
H789        H  0.95376289  0.65054443  0.33299122     0.35500
H790        H  0.95341104  0.59782049  0.34386938     0.40600
H791        H  0.54785835  0.63001798  0.48280321     0.40200
H792        H  0.57845475  0.65161460  0.44660137     0.35100
C793        C  0.49679007  0.60278432  0.63678371    -0.26600
C794        C  0.97268822  0.57471393  0.62771439    -0.14700
C795        C  0.95183407  0.58721472  0.59634277     0.35900
C796        C  0.95582002  0.62671815  0.57457384    -0.26100
C797        C  0.98104102  0.65391782  0.58219167    -0.15300
C798        C  0.50151674  0.64201221  0.61405343     0.37000
N799        N  0.52709492  0.66956291  0.62309630    -0.89600
H800        H  0.51265977  0.59355630  0.66102920     0.18100
H801        H  0.93995140  0.63536836  0.55019712     0.18100
N802        N  0.92621310  0.56073311  0.58600773    -0.88600
H803        H  0.54024054  0.65580715  0.64696499     0.35500
H804        H  0.51421049  0.69744714  0.63408673     0.40600
H805        H  0.90969219  0.55287149  0.61295558     0.40200
H806        H  0.93844705  0.53290940  0.57417177     0.35100
C807        C  0.49446484  0.88495508  0.64015492    -0.26600
C808        C  0.97040220  0.91808252  0.63116553    -0.14700
C809        C  0.94927336  0.91300433  0.59995493     0.35900
C810        C  0.95511628  0.87711106  0.57615500    -0.26100
C811        C  0.98046633  0.84501594  0.58356461    -0.15300
C812        C  0.49975706  0.84850336  0.61676737     0.37000
N813        N  0.52420620  0.81491687  0.62717522    -0.89600
H814        H  0.51014618  0.88819858  0.66464056     0.18100
H815        H  0.93966393  0.87450932  0.55131646     0.18100
N816        N  0.92128368  0.94287994  0.59198042    -0.88600
H817        H  0.53319406  0.82032305  0.65507429     0.35500
H818        H  0.54562830  0.81620533  0.60443496     0.40600
H819        H  0.91648901  0.96520215  0.61455308     0.40200
H820        H  0.89887652  0.92596710  0.59518769     0.35100
C821        C  0.85307871  0.60934500  0.97256060    -0.26600
C822        C  0.83997803  0.63193370  0.00729175    -0.14700
C823        C  0.85480792  0.62451178  0.04415459     0.35900
C824        C  0.88276377  0.59478356  0.04583305    -0.26100
C825        C  0.89650187  0.57216957  0.01100951    -0.15300
C826        C  0.88108713  0.57966032  0.97388924     0.37000
N827        N  0.89256025  0.55715043  0.93735067    -0.89600
H828        H  0.84171702  0.61530139  0.94404293     0.18100
H829        H  0.89378829  0.58949175  0.07463153     0.18100
N830        N  0.84146400  0.64732469  0.07992841    -0.88600
H831        H  0.89151051  0.52443675  0.94482557     0.35500
H832        H  0.91791218  0.56450170  0.92649375     0.40600
H833        H  0.86143143  0.66389413  0.08853401     0.40200
H834        H  0.83379958  0.62509380  0.10410928     0.35100
C835        C  0.66597533  0.89477717  0.96173212    -0.26600
C836        C  0.66334474  0.86662932  0.99687456    -0.14700
C837        C  0.63354865  0.86885767  0.02607889     0.35900
C838        C  0.60663045  0.89892119  0.01955813    -0.26100
C839        C  0.60881639  0.92689376  0.98402777    -0.15300
C840        C  0.63923595  0.92518774  0.95506063     0.37000
N841        N  0.64321184  0.95460064  0.91931282    -0.89600
H842        H  0.68886897  0.89256804  0.93917594     0.18100
H843        H  0.58377012  0.90002808  0.04223796     0.18100
N844        N  0.63042451  0.84008404  0.06208687    -0.88600
H845        H  0.66666993  0.94826397  0.90085606     0.35500
H846        H  0.64431671  0.48503395  0.92992072     0.40600
H847        H  0.62640968  0.85812298  0.08826758     0.40200
H848        H  0.60857821  0.82276531  0.06174667     0.35100
C849        C  0.63479509  0.60138900  0.95982808    -0.26600
C850        C  0.60673884  0.59776399  0.99144884    -0.14700
C851        C  0.60681791  0.61932250  0.02824968     0.35900
C852        C  0.63487793  0.64366145  0.03239943    -0.26100
C853        C  0.66243921  0.64718889  0.00053426    -0.15300
C854        C  0.66237376  0.62605717  0.96404227     0.37000
N855        N  0.68998447  0.63052242  0.93081553    -0.89600
H856        H  0.63552087  0.58495496  0.93152459     0.18100
H857        H  0.63492559  0.66092147  0.06006984     0.18100
N858        N  0.57833772  0.61718033  0.06088122    -0.88600
H859        H  0.70100382  0.60016450  0.92462392     0.35500
H860        H  0.67954495  0.64317257  0.90445075     0.40600
H861        H  0.55682308  0.63242901  0.04936367     0.40200
H862        H  0.58288568  0.63419063  0.08591779     0.35100
C863        C  0.85388361  0.87539538  0.96780129    -0.26600
C864        C  0.84202168  0.84887101  0.00230536    -0.14700
C865        C  0.85940709  0.84628082  0.03775652     0.35900
C866        C  0.88784405  0.87070304  0.03801926    -0.26100
C867        C  0.89965283  0.89795842  0.00391632    -0.15300
C868        C  0.88271852  0.89983732  0.96800306     0.37000
N869        N  0.89404370  0.92724481  0.93242603    -0.89600
H870        H  0.84086309  0.87643613  0.94040784     0.18100
H871        H  0.90054328  0.86871958  0.06570978     0.18100
N872        N  0.84874614  0.81977935  0.07428216    -0.88600
H873        H  0.87735730  0.92686271  0.90997554     0.35500
H874        H  0.91785933  0.91448051  0.91898633     0.40600
H875        H  0.82612002  0.80480288  0.07213703     0.40200
H876        H  0.86809048  0.79578298  0.07710898     0.35100
C877        C  0.50122001  0.54917236  0.17318143    -0.26600
C878        C  0.51485608  0.51318544  0.15213053    -0.14700
C879        C  0.03120698  0.97927486  0.17417811     0.35900
C880        C  0.03331035  0.98241043  0.21646921    -0.26100
C881        C  0.51898796  0.51796704  0.23797675    -0.15300
C882        C  0.50324239  0.55217501  0.21570257     0.37000
N883        N  0.48779443  0.58885617  0.23645363    -0.89600
H884        H  0.48831568  0.57485576  0.15638278     0.18100
H885        H  0.04554759  0.95593273  0.23295076     0.18100
N886        N  0.04455700  0.94040181  0.15561372    -0.88600
H887        H  0.47460494  0.60905844  0.21642191     0.35500
H888        H  0.50779193  0.60617744  0.24387314     0.40600
H889        H  0.04098477  0.94039308  0.12452112     0.40200
H890        H  0.03046948  0.91557892  0.17085664     0.35100
C891        C  0.96722013  0.52093612  0.82718851    -0.26600
C892        C  0.98773981  0.98745801  0.84312223    -0.14700
C893        C  0.50128594  0.95434407  0.81762674     0.35900
C894        C  0.99446618  0.95587414  0.77630302    -0.26100
C895        C  0.97533635  0.99044725  0.75961919    -0.15300
C896        C  0.96109681  0.52306273  0.78558607     0.37000
N897        N  0.94059006  0.55824305  0.76969455    -0.89600
H898        H  0.95682707  0.54623483  0.84699505     0.18100
H899        H  0.50528197  0.93069860  0.75660033     0.18100
N900        N  0.52137417  0.91896936  0.83390218    -0.88600
H901        H  0.93255368  0.57970013  0.79265249     0.35500
H902        H  0.91829283  0.54609868  0.76174780     0.40600
H903        H  0.54497056  0.93011048  0.83878570     0.40200
H904        H  0.52718000  0.89591536  0.81200206     0.35100
loop_ 
_geom_bond_atom_site_label_1 
_geom_bond_atom_site_label_2 
_geom_bond_distance 
_geom_bond_site_symmetry_2 
_ccdc_geom_bond_type 
O1         Ni233   1.927   1_545  S
O1          C474   1.269       .  A
O2          Ni25   1.906       .  S
O2           C11   1.266       .  A
O3           Ni7   1.908       .  S
O3          Ni25   1.906   1_554  S
O3         Ni697   1.910       .  S
O3           H26   0.966       .  S
C4           O21   1.275   1_556  A
C4           O13   1.277       .  A
C4          C172   1.484       .  S
O5         Ni250   1.929       .  S
O5          C463   1.269   1_455  A
O6         Ni250   1.900       .  S
O6            C8   1.267       .  A
Ni7          O10   1.917       .  S
Ni7         O227   1.927       .  S
Ni7         O238   1.905       .  S
C8           O18   1.273   1_556  A
C8          C161   1.485       .  S
O9          Ni25   1.918       .  S
O9           C15   1.276   1_556  A
O10          C15   1.277       .  A
C11         O457   1.269       .  A
C11         C214   1.473       .  S
O12        Ni233   1.905   1_545  S
O12          C14   1.268       .  A
O13         Ni24   1.920       .  S
C14          O20   1.270   1_554  A
C14         C147   1.488       .  S
C15         C189   1.485       .  S
H16          O17   0.967       .  S
O17         Ni19   1.906   1_556  S
O17         Ni24   1.908       .  S
O17        Ni703   1.909   1_445  S
O18        Ni245   1.928       .  S
Ni19         O23   1.915       .  S
Ni19         O21   1.910       .  S
Ni19        O244   1.928   1_545  S
Ni19        O681   1.910   1_445  S
O20        Ni251   1.923   1_545  S
C22          O23   1.269       .  A
C22         O453   1.269   1_455  A
C22         C200   1.478       .  S
Ni24        O231   1.929   1_545  S
Ni24        O232   1.900   1_545  S
Ni25        O246   1.923       .  S
Ni25        O695   1.909       .  S
N27          C32   1.351   1_554  A
N27          C31   1.352   1_554  A
N27          H59   1.038       .  S
N28          C35   1.350       .  A
N28          C36   1.348       .  A
N29          C34   1.352   1_554  A
N29          C33   1.352   1_554  A
N29          H60   1.039       .  S
N30          C37   1.351   1_556  A
N30          C38   1.350   1_556  A
C31          C39   1.387       .  A
C31          C47   1.412   1_556  A
C32          C48   1.412       .  A
C32          C40   1.387       .  A
C33          C41   1.388       .  A
C33          C50   1.412   1_556  A
C34          C49   1.412   1_556  A
C34          C42   1.387       .  A
C35          C47   1.410       .  A
C35          C43   1.386       .  A
C36          C50   1.409       .  A
C36          C44   1.386       .  A
C37          C45   1.386       .  A
C37          C48   1.413   1_554  A
C38          C46   1.386       .  A
C38          C49   1.412       .  A
C39          C40   1.372       .  A
C39          H51   1.082       .  S
C40          H52   1.082       .  S
C41          C42   1.370       .  A
C41          H53   1.082       .  S
C42          H54   1.082       .  S
C43          C44   1.375       .  A
C43          H55   1.082       .  S
C44          H56   1.082       .  S
C45          C46   1.377       .  A
C45          H57   1.082       .  S
C46          H58   1.082       .  S
C47         C144   1.483       .  S
C48         C186   1.483   1_556  S
C49         C158   1.485   1_554  S
C50         C175   1.478       .  S
C61         C217   1.482       .  S
C61          N62   1.360       .  A
C61         N292   1.358       .  A
N62          C63   1.359       .  A
C63         C130   1.485       .  S
C63          N64   1.361       .  A
N64         C291   1.360       .  A
C65         C116   1.483       .  S
C65          N66   1.357       .  A
C65         N290   1.360   1_545  A
N66         C287   1.358   1_545  A
C67         C203   1.492       .  S
C67          N68   1.362       .  A
C67         N298   1.360   1_545  A
N68          C69   1.361       .  A
C69         C105   1.484       .  S
C69          N70   1.359       .  A
N70         C297   1.360   1_545  A
C71          C91   1.493       .  S
C71          N72   1.357       .  A
C71         N296   1.360       .  A
N72         C293   1.360       .  A
O73         Ni81   1.916       .  S
O73         C535   1.280       .  A
O74         Ni81   1.918       .  S
O74          C84   1.282       .  A
O75         Ni81   1.922       .  S
O75          C85   1.283       .  A
O76         Ni81   1.921       .  S
O76         C538   1.282       .  A
O77         Ni82   1.927       .  S
O77          C86   1.283       .  A
O78         Ni82   1.922       .  S
O78         C537   1.282   1_455  A
O79         Ni82   1.918       .  S
O79         C536   1.281   1_455  A
O80         Ni82   1.922       .  S
O80          C83   1.282       .  A
Ni81       Ni534   2.385       .  S
Ni82       Ni533   2.385   1_455  S
C83         O525   1.280   1_455  A
C83          C88   1.478       .  S
C84         O531   1.281       .  A
C84         C119   1.484       .  S
C85         O530   1.282       .  A
C85         C133   1.489       .  S
C86         O528   1.282   1_455  A
C86         C102   1.493       .  S
C87          C88   1.402       .  A
C87          C92   1.408       .  A
C87          H94   1.084   1_455  S
C88         C541   1.419       .  A
C89          C90   1.401       .  A
C89         C540   1.419       .  A
C89          N96   1.440       .  S
C90         C543   1.405       .  A
C90          H95   1.084       .  S
C91          C92   1.419       .  A
C91         C542   1.405       .  A
C92          N93   1.438   1_455  S
N93          H97   1.046       .  S
N93          H98   1.045   1_655  S
N96          H99   1.040       .  S
N96         H100   1.046       .  S
C101        C106   1.410       .  A
C101        C554   1.408       .  A
C101        H108   1.083       .  S
C102        C103   1.420       .  A
C102        C553   1.408   1_455  A
C103        C104   1.402       .  A
C103        N110   1.432       .  S
C104        C105   1.403       .  A
C104        H109   1.084       .  S
C105        C558   1.411   1_455  A
C106        C557   1.411       .  A
C106        N107   1.438       .  S
N107        H111   1.046       .  S
N107        H112   1.046       .  S
N110        H113   1.046       .  S
N110        H114   1.045       .  S
C115        C120   1.408   1_655  A
C115        C568   1.406       .  A
C115        H122   1.084   1_655  S
C116        C117   1.414       .  A
C116        C567   1.406       .  A
C117        C118   1.399       .  A
C117        N124   1.432       .  S
C118        C119   1.405       .  A
C118        H123   1.084       .  S
C119        C572   1.413       .  A
C120        C571   1.413   1_455  A
C120        N121   1.438       .  S
N121        H125   1.046       .  S
N121        H126   1.046       .  S
N124        H127   1.045       .  S
N124        H128   1.044       .  S
C129        C134   1.409       .  A
C129        C582   1.406       .  A
C129        H136   1.084   1_655  S
C130        C131   1.417       .  A
C130        C581   1.406       .  A
C131        C132   1.403       .  A
C131        N138   1.440       .  S
C132        C133   1.405       .  A
C132        H137   1.084       .  S
C133        C586   1.414       .  A
C134        C585   1.414       .  A
C134        N135   1.438   1_655  S
N135        H139   1.046       .  S
N135        H140   1.045       .  S
N138        H141   1.042       .  S
N138        H142   1.046       .  S
C143        C144   1.399   1_556  A
C143        C148   1.401       .  A
C143        H150   1.084       .  S
C144        C145   1.403       .  A
C145        C146   1.401       .  A
C145        N152   1.432       .  S
C146        C147   1.408       .  A
C146        H151   1.084       .  S
C147        C148   1.423   1_554  A
C148        N149   1.433       .  S
N149        H153   1.046       .  S
N149        H154   1.045       .  S
N152        H155   1.045       .  S
N152        H156   1.046       .  S
C157        C158   1.399       .  A
C157        C162   1.404       .  A
C157        H164   1.084       .  S
C158        C159   1.407   1_556  A
C159        C160   1.402       .  A
C159        N166   1.432       .  S
C160        C161   1.405   1_554  A
C160        H165   1.084       .  S
C161        C162   1.420       .  A
C162        N163   1.438       .  S
N163        H167   1.046       .  S
N163        H394   1.046       .  S
N166        H169   1.045       .  S
N166        H170   1.046       .  S
H168        N389   1.046       .  S
C171        C172   1.409       .  A
C171        C176   1.397       .  A
C171        H178   1.084       .  S
C172        C173   1.417   1_556  A
C173        C174   1.406       .  A
C173        N180   1.438       .  S
C174        C175   1.400       .  A
C174        H179   1.084       .  S
C175        C176   1.401   1_554  A
C176        N177   1.433       .  S
N177        H181   1.045       .  S
N177        H182   1.046       .  S
N180        H183   1.046       .  S
N180        H184   1.046       .  S
C185        C186   1.402   1_556  A
C185        C190   1.408       .  A
C185        H192   1.084       .  S
C186        C187   1.413       .  A
C187        C188   1.395       .  A
C187        N194   1.439       .  S
C188        C189   1.405       .  A
C188        H193   1.084       .  S
C189        C190   1.417   1_554  A
C190        N191   1.438       .  S
N191        H195   1.046       .  S
N191        H196   1.046       .  S
N194        H197   1.043       .  S
N194        H198   1.046       .  S
C199        C200   1.404       .  A
C199        C204   1.409       .  A
C199        H206   1.084   1_455  S
C200        C879   1.416   1_545  A
C201        C202   1.402       .  A
C201        C878   1.416       .  A
C201        N208   1.440       .  S
C202        C881   1.408       .  A
C202        H207   1.084       .  S
C203        C204   1.415       .  A
C203        C880   1.408   1_545  A
C204        N205   1.438   1_455  S
N205        H209   1.046       .  S
N205        H210   1.045   1_655  S
N208        H211   1.042       .  S
N208        H212   1.046       .  S
C213        C218   1.405       .  A
C213        C440   1.401   1_545  A
C213        H220   1.084       .  S
C214        C439   1.401       .  A
C214        C667   1.410       .  A
C215        C666   1.410   1_455  A
C215        C668   1.405   1_455  A
C215        N222   1.438       .  S
C216        C217   1.405       .  A
C216        C667   1.405       .  A
C216        H673   1.084       .  S
C217        C444   1.415       .  A
C218        C443   1.415   1_545  A
C218        N219   1.438       .  S
N219        H223   1.046       .  S
N219        H224   1.045       .  S
H221        C668   1.084   1_455  S
N222        H225   1.045       .  S
N222        H226   1.046       .  S
O227        C700   1.269       .  A
O228       Ni251   1.906       .  S
O228        C237   1.266       .  A
O229       Ni233   1.908       .  S
O229       Ni251   1.906   1_554  S
O229       Ni471   1.910   1_565  S
O229        H252   0.966       .  S
C230        O247   1.275   1_556  A
C230        O239   1.277       .  A
C230        C398   1.484       .  S
O231        C689   1.269   1_455  A
O232        C234   1.267       .  A
Ni233       O236   1.917       .  S
C234        O244   1.273   1_556  A
C234        C387   1.485       .  S
O235       Ni251   1.918       .  S
O235        C241   1.276   1_556  A
O236        C241   1.277       .  A
C237        O683   1.269       .  A
C237        C440   1.473       .  S
O238        C240   1.268       .  A
O239       Ni250   1.920       .  S
C240        O246   1.270   1_554  A
C240        C373   1.488       .  S
C241        C415   1.485       .  S
H242        O243   0.967       .  S
O243       Ni477   1.909   1_455  S
O243       Ni245   1.906   1_556  S
O243       Ni250   1.908       .  S
Ni245       O249   1.915       .  S
Ni245       O247   1.910       .  S
Ni245       O455   1.910   1_455  S
C248        O679   1.269   1_455  A
C248        O249   1.269       .  A
C248        C426   1.478       .  S
Ni251       O469   1.909   1_565  S
N253        C258   1.351   1_554  A
N253        C257   1.352   1_554  A
N253        H285   1.038       .  S
N254        C261   1.350       .  A
N254        C262   1.348       .  A
N255        C260   1.352   1_554  A
N255        C259   1.352   1_554  A
N255        H286   1.039       .  S
N256        C263   1.351   1_556  A
N256        C264   1.350   1_556  A
C257        C265   1.387       .  A
C257        C273   1.412   1_556  A
C258        C274   1.412       .  A
C258        C266   1.387       .  A
C259        C267   1.388       .  A
C259        C276   1.412   1_556  A
C260        C275   1.412   1_556  A
C260        C268   1.387       .  A
C261        C273   1.410       .  A
C261        C269   1.386       .  A
C262        C276   1.409       .  A
C262        C270   1.386       .  A
C263        C271   1.386       .  A
C263        C274   1.413   1_554  A
C264        C272   1.386       .  A
C264        C275   1.412       .  A
C265        C266   1.372       .  A
C265        H277   1.082       .  S
C266        H278   1.082       .  S
C267        C268   1.370       .  A
C267        H279   1.082       .  S
C268        H280   1.082       .  S
C269        C270   1.375       .  A
C269        H281   1.082       .  S
C270        H282   1.082       .  S
C271        C272   1.377       .  A
C271        H283   1.082       .  S
C272        H284   1.082       .  S
C273        C370   1.483       .  S
C274        C412   1.483   1_556  S
C275        C384   1.485   1_554  S
C276        C401   1.478       .  S
C287        C443   1.482       .  S
C287        N288   1.360       .  A
N288        C289   1.359       .  A
C289        C356   1.485       .  S
C289        N290   1.361       .  A
C291        C342   1.483       .  S
C291        N292   1.357       .  A
C293        C429   1.492       .  S
C293        N294   1.362       .  A
N294        C295   1.361       .  A
C295        C331   1.484       .  S
C295        N296   1.359       .  A
C297        C317   1.493       .  S
C297        N298   1.357       .  A
O299       Ni307   1.916       .  S
O299        C761   1.280       .  A
O300       Ni307   1.918       .  S
O300        C310   1.282       .  A
O301       Ni307   1.922       .  S
O301        C311   1.283       .  A
O302       Ni307   1.921       .  S
O302        C764   1.282       .  A
O303       Ni308   1.927       .  S
O303        C312   1.283       .  A
O304       Ni308   1.922       .  S
O304        C763   1.282   1_455  A
O305       Ni308   1.918       .  S
O305        C762   1.281   1_455  A
O306       Ni308   1.922       .  S
O306        C309   1.282       .  A
Ni307      Ni760   2.385       .  S
Ni308      Ni759   2.385   1_455  S
C309        O751   1.280   1_455  A
C309        C314   1.478       .  S
C310        O757   1.281       .  A
C310        C345   1.484       .  S
C311        O756   1.282       .  A
C311        C359   1.489       .  S
C312        O754   1.282   1_455  A
C312        C328   1.493       .  S
C313        C314   1.402       .  A
C313        C318   1.408       .  A
C313        H320   1.084   1_455  S
C314        C767   1.419       .  A
C315        C766   1.419       .  A
C315        C316   1.401       .  A
C315        N322   1.440       .  S
C316        C769   1.405       .  A
C316        H321   1.084       .  S
C317        C768   1.405       .  A
C317        C318   1.419       .  A
C318        N319   1.438   1_455  S
N319        H323   1.046       .  S
N319        H324   1.045   1_655  S
N322        H325   1.040       .  S
N322        H326   1.046       .  S
C327        C780   1.408       .  A
C327        C332   1.410       .  A
C327        H334   1.083       .  S
C328        C779   1.408   1_455  A
C328        C329   1.420       .  A
C329        C330   1.402       .  A
C329        N336   1.432       .  S
C330        C331   1.403       .  A
C330        H335   1.084       .  S
C331        C784   1.411   1_455  A
C332        C783   1.411       .  A
C332        N333   1.438       .  S
N333        H337   1.046       .  S
N333        H338   1.046       .  S
N336        H339   1.046       .  S
N336        H340   1.045       .  S
C341        C794   1.406       .  A
C341        C346   1.408   1_655  A
C341        H348   1.084   1_655  S
C342        C793   1.406       .  A
C342        C343   1.414       .  A
C343        C344   1.399       .  A
C343        N350   1.432       .  S
C344        C345   1.405       .  A
C344        H349   1.084       .  S
C345        C798   1.413       .  A
C346        C797   1.413   1_455  A
C346        N347   1.438       .  S
N347        H351   1.046       .  S
N347        H352   1.046       .  S
N350        H353   1.045       .  S
N350        H354   1.044       .  S
C355        C808   1.406       .  A
C355        C360   1.409       .  A
C355        H362   1.084   1_655  S
C356        C807   1.406       .  A
C356        C357   1.417       .  A
C357        C358   1.403       .  A
C357        N364   1.440       .  S
C358        C359   1.405       .  A
C358        H363   1.084       .  S
C359        C812   1.414       .  A
C360        C811   1.414       .  A
C360        N361   1.438   1_655  S
N361        H365   1.046       .  S
N361        H366   1.045       .  S
N364        H367   1.042       .  S
N364        H368   1.046       .  S
C369        C370   1.399   1_556  A
C369        C374   1.401       .  A
C369        H376   1.084       .  S
C370        C371   1.403       .  A
C371        C372   1.401       .  A
C371        N378   1.432       .  S
C372        C373   1.408       .  A
C372        H377   1.084       .  S
C373        C374   1.423   1_554  A
C374        N375   1.433       .  S
N375        H379   1.046       .  S
N375        H380   1.045       .  S
N378        H381   1.045       .  S
N378        H382   1.046       .  S
C383        C384   1.399       .  A
C383        C388   1.404       .  A
C383        H390   1.084       .  S
C384        C385   1.407   1_556  A
C385        C386   1.402       .  A
C385        N392   1.432       .  S
C386        C387   1.405   1_554  A
C386        H391   1.084       .  S
C387        C388   1.420       .  A
C388        N389   1.438       .  S
N389        H393   1.046       .  S
N392        H395   1.045       .  S
N392        H396   1.046       .  S
C397        C398   1.409       .  A
C397        C402   1.397       .  A
C397        H404   1.084       .  S
C398        C399   1.417   1_556  A
C399        C400   1.406       .  A
C399        N406   1.438       .  S
C400        C401   1.400       .  A
C400        H405   1.084       .  S
C401        C402   1.401   1_554  A
C402        N403   1.433       .  S
N403        H407   1.045       .  S
N403        H408   1.046       .  S
N406        H409   1.046       .  S
N406        H410   1.046       .  S
C411        C412   1.402   1_556  A
C411        C416   1.408       .  A
C411        H418   1.084       .  S
C412        C413   1.413       .  A
C413        C414   1.395       .  A
C413        N420   1.439       .  S
C414        C415   1.405       .  A
C414        H419   1.084       .  S
C415        C416   1.417   1_554  A
C416        N417   1.438       .  S
N417        H421   1.046       .  S
N417        H422   1.046       .  S
N420        H423   1.043       .  S
N420        H424   1.046       .  S
C425        C426   1.404       .  A
C425        C430   1.409       .  A
C425        H432   1.084   1_455  S
C426        C653   1.416       .  A
C427        C652   1.416   1_565  A
C427        C428   1.402       .  A
C427        N434   1.440       .  S
C428        C655   1.408   1_565  A
C428        H433   1.084       .  S
C429        C654   1.408       .  A
C429        C430   1.415       .  A
C430        N431   1.438   1_455  S
N431        H435   1.046       .  S
N431        H436   1.045   1_655  S
N434        H437   1.042       .  S
N434        H438   1.046       .  S
C439        C444   1.405       .  A
C439        H446   1.084       .  S
C440        C893   1.410       .  A
C441        C892   1.410   1_455  A
C441        C894   1.405   1_455  A
C441        N448   1.438       .  S
C442        C893   1.405       .  A
C442        C443   1.405       .  A
C442        H899   1.084       .  S
C444        N445   1.438       .  S
N445        H449   1.046       .  S
N445        H450   1.045       .  S
H447        C894   1.084   1_455  S
N448        H451   1.045       .  S
N448        H452   1.046       .  S
O453       Ni685   1.927   1_545  S
O454       Ni477   1.906       .  S
O454        C463   1.266       .  A
O455       Ni459   1.908       .  S
O455       Ni477   1.906   1_554  S
O455        H478   0.966   1_655  S
C456        O473   1.275   1_556  A
C456        O465   1.277       .  A
C456        C624   1.484       .  S
O457       Ni702   1.929       .  S
O458       Ni702   1.900       .  S
O458        C460   1.267       .  A
Ni459       O679   1.927       .  S
Ni459       O462   1.917       .  S
Ni459       O690   1.905       .  S
C460        O470   1.273   1_556  A
C460        C613   1.485       .  S
O461       Ni477   1.918       .  S
O461        C467   1.276   1_556  A
O462        C467   1.277       .  A
C463        C666   1.473       .  S
O464       Ni685   1.905   1_545  S
O464        C466   1.268       .  A
O465       Ni476   1.920       .  S
C466        O472   1.270   1_554  A
C466        C599   1.488       .  S
C467        C641   1.485       .  S
H468        O469   0.967       .  S
O469       Ni471   1.906   1_556  S
O469       Ni476   1.908       .  S
O470       Ni697   1.928       .  S
Ni471       O696   1.928   1_545  S
Ni471       O475   1.915       .  S
Ni471       O473   1.910       .  S
O472       Ni703   1.923   1_545  S
C474        O475   1.269       .  A
C474        C652   1.478       .  S
Ni476       O683   1.929   1_545  S
Ni476       O684   1.900   1_545  S
Ni477       O698   1.923       .  S
N479        C484   1.351   1_554  A
N479        C483   1.352   1_554  A
N479        H511   1.038       .  S
N480        C487   1.350       .  A
N480        C488   1.348       .  A
N481        C486   1.352   1_554  A
N481        C485   1.352   1_554  A
N481        H512   1.039       .  S
N482        C489   1.351   1_556  A
N482        C490   1.350   1_556  A
C483        C491   1.387       .  A
C483        C499   1.412   1_556  A
C484        C500   1.412       .  A
C484        C492   1.387       .  A
C485        C493   1.388       .  A
C485        C502   1.412   1_556  A
C486        C501   1.412   1_556  A
C486        C494   1.387       .  A
C487        C499   1.410       .  A
C487        C495   1.386       .  A
C488        C502   1.409       .  A
C488        C496   1.386       .  A
C489        C497   1.386       .  A
C489        C500   1.413   1_554  A
C490        C498   1.386       .  A
C490        C501   1.412       .  A
C491        C492   1.372       .  A
C491        H503   1.082       .  S
C492        H504   1.082       .  S
C493        C494   1.370       .  A
C493        H505   1.082       .  S
C494        H506   1.082       .  S
C495        C496   1.375       .  A
C495        H507   1.082       .  S
C496        H508   1.082       .  S
C497        C498   1.377       .  A
C497        H509   1.082       .  S
C498        H510   1.082       .  S
C499        C596   1.483       .  S
C500        C638   1.483   1_556  S
C501        C610   1.485   1_554  S
C502        C627   1.478       .  S
C513        C669   1.482       .  S
C513        N514   1.360       .  A
C513        N744   1.358       .  A
N514        C515   1.359       .  A
C515        C582   1.485       .  S
C515        N516   1.361       .  A
N516        C743   1.360       .  A
C517        C568   1.483       .  S
C517        N742   1.360   1_545  A
C517        N518   1.357       .  A
N518        C739   1.358   1_545  A
C519        C655   1.492       .  S
C519        N520   1.362       .  A
C519        N750   1.360   1_545  A
N520        C521   1.361       .  A
C521        C557   1.484       .  S
C521        N522   1.359       .  A
N522        C749   1.360   1_545  A
C523        C543   1.493       .  S
C523        N748   1.360       .  A
C523        N524   1.357       .  A
N524        C745   1.360       .  A
O525       Ni533   1.916       .  S
O526       Ni533   1.918       .  S
O526        C536   1.282       .  A
O527       Ni533   1.922       .  S
O527        C537   1.283       .  A
O528       Ni533   1.921       .  S
O529       Ni534   1.927       .  S
O529        C538   1.283       .  A
O530       Ni534   1.922       .  S
O531       Ni534   1.918       .  S
O532       Ni534   1.922       .  S
O532        C535   1.282       .  A
C535        C540   1.478       .  S
C536        C571   1.484       .  S
C537        C585   1.489       .  S
C538        C554   1.493       .  S
C539        C540   1.402       .  A
C539        C544   1.408       .  A
C539        H546   1.084       .  S
C541        C542   1.401       .  A
C541        N548   1.440       .  S
C542        H547   1.084       .  S
C543        C544   1.419       .  A
C544        N545   1.438       .  S
N545        H549   1.046       .  S
N545        H550   1.045       .  S
N548        H551   1.040       .  S
N548        H552   1.046       .  S
C553        C558   1.410       .  A
C553        H560   1.083       .  S
C554        C555   1.420       .  A
C555        C556   1.402       .  A
C555        N562   1.432       .  S
C556        C557   1.403       .  A
C556        H561   1.084       .  S
C558        N559   1.438       .  S
N559        H563   1.046       .  S
N559        H564   1.046       .  S
N562        H565   1.046       .  S
N562        H566   1.045       .  S
C567        C572   1.408       .  A
C567        H574   1.084       .  S
C568        C569   1.414       .  A
C569        C570   1.399       .  A
C569        N576   1.432       .  S
C570        C571   1.405       .  A
C570        H575   1.084       .  S
C572        N573   1.438       .  S
N573        H577   1.046       .  S
N573        H578   1.046       .  S
N576        H579   1.045       .  S
N576        H580   1.044       .  S
C581        C586   1.409       .  A
C581        H588   1.084       .  S
C582        C583   1.417       .  A
C583        C584   1.403       .  A
C583        N590   1.440       .  S
C584        C585   1.405       .  A
C584        H589   1.084       .  S
C586        N587   1.438       .  S
N587        H591   1.046       .  S
N587        H592   1.045       .  S
N590        H593   1.042       .  S
N590        H594   1.046       .  S
C595        C596   1.399   1_556  A
C595        C600   1.401       .  A
C595        H602   1.084       .  S
C596        C597   1.403       .  A
C597        C598   1.401       .  A
C597        N604   1.432       .  S
C598        C599   1.408       .  A
C598        H603   1.084       .  S
C599        C600   1.423   1_554  A
C600        N601   1.433       .  S
N601        H605   1.046       .  S
N601        H606   1.045       .  S
N604        H607   1.045       .  S
N604        H608   1.046       .  S
C609        C610   1.399       .  A
C609        C614   1.404       .  A
C609        H616   1.084       .  S
C610        C611   1.407   1_556  A
C611        C612   1.402       .  A
C611        N618   1.432       .  S
C612        C613   1.405   1_554  A
C612        H617   1.084       .  S
C613        C614   1.420       .  A
C614        N615   1.438       .  S
N615        H619   1.046       .  S
N615        H846   1.046       .  S
N618        H621   1.045       .  S
N618        H622   1.046       .  S
H620        N841   1.046       .  S
C623        C624   1.409       .  A
C623        C628   1.397       .  A
C623        H630   1.084       .  S
C624        C625   1.417   1_556  A
C625        C626   1.406       .  A
C625        N632   1.438       .  S
C626        C627   1.400       .  A
C626        H631   1.084       .  S
C627        C628   1.401   1_554  A
C628        N629   1.433       .  S
N629        H633   1.045       .  S
N629        H634   1.046       .  S
N632        H635   1.046       .  S
N632        H636   1.046       .  S
C637        C638   1.402   1_556  A
C637        C642   1.408       .  A
C637        H644   1.084       .  S
C638        C639   1.413       .  A
C639        C640   1.395       .  A
C639        N646   1.439       .  S
C640        C641   1.405       .  A
C640        H645   1.084       .  S
C641        C642   1.417   1_554  A
C642        N643   1.438       .  S
N643        H647   1.046       .  S
N643        H648   1.046       .  S
N646        H649   1.043       .  S
N646        H650   1.046       .  S
C651        C652   1.404       .  A
C651        C656   1.409       .  A
C651        H658   1.084       .  S
C653        C654   1.402       .  A
C653        N660   1.440       .  S
C654        H659   1.084       .  S
C655        C656   1.415       .  A
C656        N657   1.438       .  S
N657        H661   1.046       .  S
N657        H662   1.045       .  S
N660        H663   1.042       .  S
N660        H664   1.046       .  S
C665        C892   1.401   1_545  A
C665        C670   1.405       .  A
C665        H672   1.084       .  S
C666        C891   1.401       .  A
C667        N674   1.438       .  S
C668        C669   1.405       .  A
C669        C896   1.415       .  A
C670        C895   1.415   1_545  A
C670        N671   1.438       .  S
N671        H675   1.046       .  S
N671        H676   1.045       .  S
N674        H677   1.045       .  S
N674        H678   1.046       .  S
O680       Ni703   1.906       .  S
O680        C689   1.266       .  A
O681       Ni685   1.908       .  S
O681       Ni703   1.906   1_554  S
O681        H704   0.966   1_655  S
C682        O699   1.275   1_556  A
C682        O691   1.277       .  A
C682        C850   1.484       .  S
O684        C686   1.267       .  A
Ni685       O688   1.917       .  S
C686        O696   1.273   1_556  A
C686        C839   1.485       .  S
O687       Ni703   1.918       .  S
O687        C693   1.276   1_556  A
O688        C693   1.277       .  A
C689        C892   1.473       .  S
O690        C692   1.268       .  A
O691       Ni702   1.920       .  S
C692        O698   1.270   1_554  A
C692        C825   1.488       .  S
C693        C867   1.485       .  S
H694        O695   0.967       .  S
O695       Ni697   1.906   1_556  S
O695       Ni702   1.908       .  S
Ni697       O701   1.915       .  S
Ni697       O699   1.910       .  S
C700        O701   1.269       .  A
C700        C878   1.478       .  S
N705        C710   1.351   1_554  A
N705        C709   1.352   1_554  A
N705        H737   1.038       .  S
N706        C713   1.350       .  A
N706        C714   1.348       .  A
N707        C712   1.352   1_554  A
N707        C711   1.352   1_554  A
N707        H738   1.039       .  S
N708        C715   1.351   1_556  A
N708        C716   1.350   1_556  A
C709        C717   1.387       .  A
C709        C725   1.412   1_556  A
C710        C726   1.412       .  A
C710        C718   1.387       .  A
C711        C719   1.388       .  A
C711        C728   1.412   1_556  A
C712        C727   1.412   1_556  A
C712        C720   1.387       .  A
C713        C725   1.410       .  A
C713        C721   1.386       .  A
C714        C728   1.409       .  A
C714        C722   1.386       .  A
C715        C723   1.386       .  A
C715        C726   1.413   1_554  A
C716        C724   1.386       .  A
C716        C727   1.412       .  A
C717        C718   1.372       .  A
C717        H729   1.082       .  S
C718        H730   1.082       .  S
C719        C720   1.370       .  A
C719        H731   1.082       .  S
C720        H732   1.082       .  S
C721        C722   1.375       .  A
C721        H733   1.082       .  S
C722        H734   1.082       .  S
C723        C724   1.377       .  A
C723        H735   1.082       .  S
C724        H736   1.082       .  S
C725        C822   1.483       .  S
C726        C864   1.483   1_556  S
C727        C836   1.485   1_554  S
C728        C853   1.478       .  S
C739        C895   1.482       .  S
C739        N740   1.360       .  A
N740        C741   1.359       .  A
C741        C808   1.485       .  S
C741        N742   1.361       .  A
C743        C794   1.483       .  S
C743        N744   1.357       .  A
C745        C881   1.492       .  S
C745        N746   1.362       .  A
N746        C747   1.361       .  A
C747        C783   1.484       .  S
C747        N748   1.359       .  A
C749        C769   1.493       .  S
C749        N750   1.357       .  A
O751       Ni759   1.916       .  S
O752       Ni759   1.918       .  S
O752        C762   1.282       .  A
O753       Ni759   1.922       .  S
O753        C763   1.283       .  A
O754       Ni759   1.921       .  S
O755       Ni760   1.927       .  S
O755        C764   1.283       .  A
O756       Ni760   1.922       .  S
O757       Ni760   1.918       .  S
O758       Ni760   1.922       .  S
O758        C761   1.282       .  A
C761        C766   1.478       .  S
C762        C797   1.484       .  S
C763        C811   1.489       .  S
C764        C780   1.493       .  S
C765        C766   1.402       .  A
C765        C770   1.408       .  A
C765        H772   1.084       .  S
C767        C768   1.401       .  A
C767        N774   1.440       .  S
C768        H773   1.084       .  S
C769        C770   1.419       .  A
C770        N771   1.438       .  S
N771        H775   1.046       .  S
N771        H776   1.045       .  S
N774        H777   1.040       .  S
N774        H778   1.046       .  S
C779        C784   1.410       .  A
C779        H786   1.083       .  S
C780        C781   1.420       .  A
C781        C782   1.402       .  A
C781        N788   1.432       .  S
C782        C783   1.403       .  A
C782        H787   1.084       .  S
C784        N785   1.438       .  S
N785        H789   1.046       .  S
N785        H790   1.046       .  S
N788        H791   1.046       .  S
N788        H792   1.045       .  S
C793        C798   1.408       .  A
C793        H800   1.084       .  S
C794        C795   1.414       .  A
C795        C796   1.399       .  A
C795        N802   1.432       .  S
C796        C797   1.405       .  A
C796        H801   1.084       .  S
C798        N799   1.438       .  S
N799        H803   1.046       .  S
N799        H804   1.046       .  S
N802        H805   1.045       .  S
N802        H806   1.044       .  S
C807        C812   1.409       .  A
C807        H814   1.084       .  S
C808        C809   1.417       .  A
C809        C810   1.403       .  A
C809        N816   1.440       .  S
C810        C811   1.405       .  A
C810        H815   1.084       .  S
C812        N813   1.438       .  S
N813        H817   1.046       .  S
N813        H818   1.045       .  S
N816        H819   1.042       .  S
N816        H820   1.046       .  S
C821        C822   1.399   1_556  A
C821        C826   1.401       .  A
C821        H828   1.084       .  S
C822        C823   1.403       .  A
C823        C824   1.401       .  A
C823        N830   1.432       .  S
C824        C825   1.408       .  A
C824        H829   1.084       .  S
C825        C826   1.423   1_554  A
C826        N827   1.433       .  S
N827        H831   1.046       .  S
N827        H832   1.045       .  S
N830        H833   1.045       .  S
N830        H834   1.046       .  S
C835        C836   1.399       .  A
C835        C840   1.404       .  A
C835        H842   1.084       .  S
C836        C837   1.407   1_556  A
C837        C838   1.402       .  A
C837        N844   1.432       .  S
C838        C839   1.405   1_554  A
C838        H843   1.084       .  S
C839        C840   1.420       .  A
C840        N841   1.438       .  S
N841        H845   1.046       .  S
N844        H847   1.045       .  S
N844        H848   1.046       .  S
C849        C850   1.409       .  A
C849        C854   1.397       .  A
C849        H856   1.084       .  S
C850        C851   1.417   1_556  A
C851        C852   1.406       .  A
C851        N858   1.438       .  S
C852        C853   1.400       .  A
C852        H857   1.084       .  S
C853        C854   1.401   1_554  A
C854        N855   1.433       .  S
N855        H859   1.045       .  S
N855        H860   1.046       .  S
N858        H861   1.046       .  S
N858        H862   1.046       .  S
C863        C864   1.402   1_556  A
C863        C868   1.408       .  A
C863        H870   1.084       .  S
C864        C865   1.413       .  A
C865        C866   1.395       .  A
C865        N872   1.439       .  S
C866        C867   1.405       .  A
C866        H871   1.084       .  S
C867        C868   1.417   1_554  A
C868        N869   1.438       .  S
N869        H873   1.046       .  S
N869        H874   1.046       .  S
N872        H875   1.043       .  S
N872        H876   1.046       .  S
C877        C878   1.404       .  A
C877        C882   1.409       .  A
C877        H884   1.084       .  S
C879        C880   1.402       .  A
C879        N886   1.440       .  S
C880        H885   1.084       .  S
C881        C882   1.415       .  A
C882        N883   1.438       .  S
N883        H887   1.046       .  S
N883        H888   1.045       .  S
N886        H889   1.042       .  S
N886        H890   1.046       .  S
C891        C896   1.405       .  A
C891        H898   1.084       .  S
C893        N900   1.438       .  S
C894        C895   1.405       .  A
C896        N897   1.438       .  S
N897        H901   1.046       .  S
N897        H902   1.045       .  S
N900        H903   1.045       .  S
N900        H904   1.046       .  S
