geometry optimzed in LAMMPS
_audit_creation_date              2020-12-01 
_audit_creation_method            'lammps2cif' 
_symmetry_space_group_name_H-M    'P1' 
_symmetry_Int_Tables_number       1 
_symmetry_cell_setting            triclinic 
loop_ 
_symmetry_equiv_pos_as_xyz 
  x,y,z 
_cell_length_a                    45.90421161 
_cell_length_b                    54.63985595164441 
_cell_length_c                    50.43824586338566 
_cell_angle_alpha                 90.16335013394004 
_cell_angle_beta                  89.98791219199575 
_cell_angle_gamma                 129.43010769987487 
loop_ 
_atom_site_label 
_atom_site_type_symbol 
_atom_site_fract_x 
_atom_site_fract_y 
_atom_site_fract_z 
_atom_site_charge 
C1          C  0.08568110  0.12523215  0.72824588     0.80600
N2          N  0.09875039  0.15555999  0.72824710    -0.77700
C3          C  0.10540638  0.17095805  0.75156732     0.83000
N4          N  0.09992187  0.15627519  0.77504641    -0.77700
C5          C  0.08671393  0.12586286  0.77527812     0.83100
N6          N  0.08000465  0.11082140  0.75180698    -0.79400
C7          C  0.08215278  0.28325615  0.72590987     0.80600
N8          N  0.09904977  0.26989991  0.72539953    -0.77700
C9          C  0.10426913  0.26006221  0.74832401     0.83000
N10         N  0.09278199  0.26376250  0.77168672    -0.77700
C11         C  0.07527468  0.27652090  0.77219917     0.83100
N12         N  0.07034974  0.28647092  0.74932730    -0.79400
C13         C  0.12483934  0.24779357  0.74836570     0.80600
N14         N  0.16320844  0.26832117  0.74856240    -0.77700
C15         C  0.18248904  0.25716885  0.75003956     0.83000
N16         N  0.16337102  0.22552786  0.75122931    -0.77700
C17         C  0.12511487  0.20495223  0.75116462     0.83100
N18         N  0.10577025  0.21606001  0.74978324    -0.79400
C19         C  0.28088273  0.30480630  0.72669224     0.80600
N20         N  0.30004472  0.31720555  0.74977905    -0.77700
C21         C  0.28164669  0.31070962  0.77298247     0.83000
N22         N  0.24329124  0.29112857  0.77314455    -0.77700
C23         C  0.22376996  0.27894681  0.74997636     0.83100
N24         N  0.24260056  0.28582012  0.72679156    -0.79400
Zr25       Zr  0.04719266  0.43106679  0.94804132     2.17500
O26         O  0.09038300  0.45399173  0.91048346    -0.51000
O27         O  0.98844871  0.40248408  0.92380817    -0.74200
O28         O  0.04511141  0.39023089  0.92636194    -0.81000
O29         O  0.05742325  0.50523277  0.95653563    -0.82700
O30         O  0.03920916  0.35651803  0.95641684    -0.78300
O31         O  0.05200928  0.47249957  0.92518379    -0.90000
O32         O  0.44229087  0.38613113  0.95377882    -0.75900
O33         O  0.00335538  0.38359288  0.97211748    -0.85400
O34         O  0.01045487  0.43948233  0.97315559    -0.85100
O35         O  0.08503693  0.42423732  0.97439163    -0.71900
O36         O  0.09139527  0.47670340  0.97515531    -0.84000
Zr37       Zr  0.04641783  0.42988533  0.05221731     2.26400
Zr38       Zr  0.04049790  0.37709531  0.99953216     2.06300
Zr39       Zr  0.05372583  0.48435630  0.00069443     2.10000
Zr40       Zr  0.46899069  0.39512903  0.99756958     1.78800
O41         O  0.10560072  0.04157525  0.00189582    -0.92800
O42         O  0.42256900  0.33768972  0.99328290    -0.40600
O43         O  0.00914344  0.43711022  0.02569323    -0.77200
O44         O  0.00256309  0.38439815  0.02506546    -0.95900
O45         O  0.08350486  0.42150957  0.02750580    -0.89200
O46         O  0.09059505  0.47756861  0.02815493    -0.92100
C47         C  0.45516963  0.39225245  0.93009517     1.01700
C48         C  0.05534035  0.49678079  0.93222663     1.14600
C49         C  0.04199690  0.36583550  0.93255098     1.05400
O50         O  0.98806206  0.32036632  0.99883029    -0.94200
O51         O  0.03455303  0.35524787  0.04301424    -0.90000
O52         O  0.03670437  0.38628460  0.07447022    -0.83100
C53         C  0.03351992  0.36221663  0.06716970     1.12000
O54         O  0.17125513  0.49070846  0.96626456    -0.96200
Zr55       Zr  0.12694932  0.46864596  0.00308845     1.88900
O56         O  0.10360605  0.45415514  0.07757206    -0.72900
O57         O  0.08887906  0.37124915  0.00113137    -0.52100
O58         O  0.16484257  0.45165384  0.00302361    -0.96800
O59         O  0.17414997  0.02779429  0.00769370    -0.54000
O60         O  0.15105711  0.47601591  0.04769910    -0.73400
C61         C  0.13829138  0.46922681  0.07150442     0.99000
O62         O  0.50400658  0.40734776  0.08932513    -0.62200
O63         O  0.50897417  0.49276299  0.00075073    -0.57000
O64         O  0.04882773  0.46967818  0.07568981    -0.93700
O65         O  0.04962081  0.50043277  0.04504297    -0.92100
O66         O  0.43315278  0.41401914  0.99795903    -0.92500
O67         O  0.42435527  0.37335828  0.03415095    -0.91200
C68         C  0.04844300  0.49210791  0.06918180     1.17800
H69         H  0.99675665  0.44351195  0.96167628     0.33800
H70         H  0.48621945  0.36711124  0.03546100     0.44600
H71         H  0.10634026  0.49526257  0.03996016     0.38100
H72         H  0.09965995  0.42139189  0.96300858     0.34600
H73         H  0.42911688  0.33271110  0.97653683     0.26400
H74         H  0.07469355  0.34810850  0.00222545     0.32300
H75         H  0.15528995  0.43671406  0.98794082     0.38300
H76         H  0.40715372  0.39533317  0.99301458     0.32700
H77         H  0.02347940  0.51627151  0.99419218     0.31600
H78         H  0.09480663  0.05178331  0.00727784     0.33300
H79         H  0.17384821  0.03263068  0.02657059     0.32200
H80         H  0.43520111  0.36850727  0.04807365     0.36200
H81         H  0.51961813  0.41898738  0.10519942     0.29000
H82         H  0.07465421  0.44114990  0.89495019     0.33200
H83         H  0.15997342  0.00153980  0.95421993     0.36100
H84         H  0.52204178  0.51473327  0.00690681     0.28700
H85         H  0.48858609  0.41405853  0.08687138     0.41500
H86         H  0.49674849  0.31127513  0.99392514     0.31600
H87         H  0.42917558  0.32933709  0.00733021     0.39200
H88         H  0.16346818  0.03629351  0.99811348     0.31100
H89         H  0.10031418  0.37714516  0.98324755     0.31100
H90         H  0.10699579  0.44853074  0.91332340     0.31400
Zr91       Zr  0.04968539  0.43772690  0.44697270     2.17500
O92         O  0.50542725  0.41570119  0.40819031    -0.51000
O93         O  0.10856870  0.46669346  0.42311420    -0.74200
O94         O  0.05047574  0.47857480  0.42728504    -0.81000
O95         O  0.04252890  0.36550860  0.45323732    -0.82700
O96         O  0.04972634  0.50820110  0.45830244    -0.78300
O97         O  0.04115094  0.39537614  0.42275154    -0.90000
O98         O  0.15573367  0.49191402  0.45353530    -0.75900
O99         O  0.09009070  0.48463203  0.47278805    -0.85400
O100        O  0.08810899  0.43080866  0.47182367    -0.85100
O101        O  0.00782964  0.43995002  0.47304975    -0.71900
O102        O  0.00714726  0.39016344  0.47207077    -0.84000
Zr103      Zr  0.04371712  0.43242765  0.55100227     2.26400
Zr104      Zr  0.04893880  0.48630108  0.50036419     2.06300
Zr105      Zr  0.04619718  0.38439824  0.49810375     2.10000
Zr106      Zr  0.12787587  0.47742246  0.49782321     1.78800
O107        O  0.99747819  0.32702074  0.49668176    -0.92800
O108        O  0.17471765  0.03196958  0.49816235    -0.40600
O109        O  0.08628810  0.43099588  0.52469956    -0.77200
O110        O  0.08782821  0.48005710  0.52597854    -0.95900
O111        O  0.00546730  0.43928060  0.52595726    -0.89200
O112        O  0.00418726  0.38587108  0.52469195    -0.92100
C113        C  0.14352204  0.48472596  0.42950628     1.01700
C114        C  0.04035901  0.37228944  0.42924232     1.14600
C115        C  0.05008145  0.50102206  0.43415822     1.05400
O116        O  0.10970809  0.04463963  0.49627853    -0.94200
O117        O  0.05676156  0.50904634  0.54384802    -0.90000
O118        O  0.05077592  0.47512011  0.57387965    -0.83100
C119        C  0.05585565  0.50035509  0.56764190     1.12000
O120        O  0.42152653  0.37357490  0.46311637    -0.96200
Zr121      Zr  0.46506046  0.39449834  0.50043992     1.88900
O122        O  0.98233901  0.40280955  0.57230087    -0.72900
O123        O  0.49891969  0.49137701  0.50248947    -0.52100
O124        O  0.42567083  0.40999661  0.49992985    -0.96800
O125        O  0.42108402  0.33673129  0.49968323    -0.54000
O126        O  0.43553085  0.37982763  0.54351322    -0.73400
C127        C  0.44784260  0.38664422  0.56737442     0.99000
O128        O  0.08113024  0.44833143  0.59138029    -0.62200
O129        O  0.09672683  0.38113443  0.49758423    -0.57000
O130        O  0.04487113  0.39367307  0.57335964    -0.93700
O131        O  0.04954964  0.36642138  0.54188648    -0.92100
O132        O  0.17194643  0.46673734  0.49672079    -0.92500
O133        O  0.16987969  0.49723159  0.53596448    -0.91200
C134        C  0.04795103  0.37280235  0.56623471     1.17800
H135        H  0.10276397  0.42817147  0.46023991     0.33800
H136        H  0.10379486  0.49772130  0.53783098     0.44600
H137        H  0.98855321  0.36707921  0.53576502     0.38100
H138        H  0.49156019  0.44305833  0.46235285     0.34600
H139        H  0.16825044  0.03868105  0.48257854     0.26400
H140        H  0.98252800  0.47767550  0.48669075     0.32300
H141        H  0.43436589  0.42446584  0.51529102     0.38300
H142        H  0.16479984  0.45322544  0.48088443     0.32700
H143        H  0.10883630  0.38936693  0.48002586     0.31600
H144        H  0.98234489  0.32165686  0.51290354     0.33300
H145        H  0.42319999  0.33020074  0.51738748     0.32200
H146        H  0.15636659  0.97919131  0.54968760     0.36200
H147        H  0.10236429  0.47127200  0.58932932     0.29000
H148        H  0.02707097  0.43297282  0.39307491     0.33200
H149        H  0.43124411  0.36670535  0.45011737     0.36100
H150        H  0.11564103  0.39760401  0.51031240     0.28700
H151        H  0.06542196  0.44691623  0.60575789     0.41500
H152        H  0.12335181  0.05022100  0.51331305     0.31600
H153        H  0.16789292  0.03858316  0.51362529     0.39200
H154        H  0.43260634  0.33083979  0.48743583     0.31100
H155        H  0.48343489  0.48029767  0.48641181     0.31100
H156        H  0.48714815  0.41924005  0.41181764     0.31400
C157        C  0.31675402  0.05875497  0.22655871     0.80600
N158        N  0.29811364  0.05334524  0.24956500    -0.77700
C159        C  0.31697883  0.06573832  0.27278395     0.83000
N160        N  0.35513825  0.08406724  0.27297257    -0.77700
C161        C  0.37415843  0.08975934  0.25010445     0.83100
N162        N  0.35498141  0.07715127  0.22682622    -0.79400
C163        C  0.02350655  0.09469940  0.22643744     0.80600
N164        N  0.03448216  0.08995243  0.24960086    -0.77700
C165        C  0.02561271  0.09580248  0.27327461     0.83000
N166        N  0.00560858  0.10636292  0.27349611    -0.77700
C167        C  0.49463849  0.11042800  0.24955168     0.83100
N168        N  0.00315364  0.10489405  0.22704906    -0.79400
C169        C  0.47338890  0.12199766  0.24986815     0.80600
N170        N  0.43507569  0.10115577  0.24919190    -0.77700
C171        C  0.41538988  0.11193972  0.25033316     0.83000
N172        N  0.43405367  0.14355205  0.25198892    -0.77700
C173        C  0.47231826  0.16443015  0.25251828     0.83100
N174        N  0.49197174  0.15361663  0.25141971    -0.79400
C175        C  0.01411569  0.24314327  0.22552262     0.80600
N176        N  0.99750782  0.21198466  0.22698573    -0.77700
C177        C  0.99043482  0.19799904  0.25095572     0.83000
N178        N  0.99945636  0.21501401  0.27360380    -0.77700
C179        C  0.01619349  0.24631796  0.27246896     0.83100
N180        N  0.02315067  0.25992706  0.24838367    -0.79400
C181        C  0.01895838  0.32951085  0.36332132    -0.14000
C182        C  0.03531015  0.31520131  0.36724095     0.16400
C183        C  0.05321597  0.31969486  0.39159095     0.02700
C184        C  0.05405335  0.33804514  0.41151845    -0.12500
C185        C  0.03767829  0.35245118  0.40764532    -0.03600
C186        C  0.01999156  0.34802607  0.38306704     0.01900
C187        C  0.03467884  0.29745091  0.34470161     0.08800
N188        N  0.07202947  0.30702707  0.39615367     0.65100
H189        H  0.06846984  0.34164253  0.42995014     0.18000
N190        N  0.48946696  0.35094098  0.38160681     0.75600
H191        H  0.49516119  0.31734892  0.34810138     0.09500
C192        C  0.01133548  0.26415022  0.34440030     0.03200
C193        C  0.00704114  0.24827746  0.32097501    -0.05500
C194        C  0.02466627  0.26483379  0.29725267    -0.23900
C195        C  0.04841480  0.29844603  0.29782672     0.12500
C196        C  0.05345286  0.31418129  0.32146903    -0.13000
N197        N  0.50354698  0.24809949  0.36914121     0.64200
H198        H  0.50222597  0.22563903  0.32289923     0.12000
N199        N  0.06668451  0.31727014  0.27463623     0.60800
H200        H  0.07093845  0.33979828  0.32138948     0.08200
O201        O  0.45446286  0.33110252  0.38588212    -0.40700
O202        O  0.50200623  0.37447863  0.36700624    -0.39800
O203        O  0.10702265  0.32438640  0.39187037    -0.39800
O204        O  0.05709019  0.28374705  0.41158511    -0.37500
O205        O  0.10112184  0.33080871  0.27115930    -0.38400
O206        O  0.05266189  0.32812228  0.26306924    -0.34600
O207        O  0.46864741  0.23217013  0.37302439    -0.36000
O208        O  0.99784978  0.23130200  0.37965803    -0.40300
C209        C  0.19044365  0.49596548  0.36312989    -0.14000
C210        C  0.22662964  0.02325937  0.36737841     0.16400
C211        C  0.23529488  0.03837359  0.39219991     0.02700
C212        C  0.20789408  0.02423882  0.41216134    -0.12500
C213        C  0.17164086  0.49805146  0.40775238    -0.03600
C214        C  0.16293506  0.48254789  0.38293212     0.01900
C215        C  0.25308945  0.03786569  0.34476767     0.08800
N216        N  0.27095361  0.06872419  0.39710311     0.65100
H217        H  0.21487141  0.03641930  0.43100679     0.18000
N218        N  0.12656219  0.45298986  0.37746875     0.75600
H219        H  0.18334911  0.48387833  0.34421520     0.09500
C220        C  0.28498105  0.03951762  0.34336080     0.03200
C221        C  0.30633496  0.05003157  0.32004334    -0.05500
C222        C  0.29595638  0.05821933  0.29773791    -0.23900
C223        C  0.26438407  0.05709198  0.29937654     0.12500
C224        C  0.24349656  0.04712521  0.32281939    -0.13000
N225        N  0.29461244  0.02856824  0.36458171     0.64200
H226        H  0.33010653  0.05028141  0.31895067     0.12000
N227        N  0.25353628  0.06663182  0.27775840     0.60800
H228        H  0.21899615  0.04590161  0.32371427     0.08200
O229        O  0.12152488  0.42757725  0.38008561    -0.40700
O230        O  0.10311834  0.45278398  0.36417301    -0.39800
O231        O  0.27438861  0.09323698  0.39313103    -0.39800
O232        O  0.29434248  0.07060202  0.41204769    -0.37500
O233        O  0.22558527  0.04564121  0.26367705    -0.38400
O234        O  0.26422831  0.09436403  0.27774011    -0.34600
O235        O  0.27957161  0.49839892  0.36214745    -0.36000
O236        O  0.31965838  0.54568099  0.37887233    -0.40300
C237        C  0.03957453  0.05328241  0.39365994    -0.14000
C238        C  0.03886497  0.04366459  0.36770559     0.16400
C239        C  0.04140399  0.52119468  0.36468432     0.02700
C240        C  0.04517350  0.50759943  0.38623405    -0.12500
C241        C  0.04882562  0.51857799  0.41225849    -0.03600
C242        C  0.04316334  0.03954521  0.41554006     0.01900
C243        C  0.03676877  0.05956764  0.34486034     0.08800
N244        N  0.03589973  0.50779869  0.33896539     0.65100
H245        H  0.04434875  0.48766909  0.38230751     0.18000
N246        N  0.04221500  0.04961919  0.44145933     0.75600
H247        H  0.03771855  0.07184381  0.39701696     0.09500
C248        C  0.50645169  0.05935576  0.34097470     0.03200
C249        C  0.50371894  0.07185358  0.31780752    -0.05500
C250        C  0.03226571  0.08620450  0.29858095    -0.23900
C251        C  0.06242690  0.08576638  0.30218607     0.12500
C252        C  0.06459520  0.07290469  0.32526038    -0.13000
N253        N  0.47562174  0.04298202  0.35916692     0.64200
H254        H  0.47831547  0.06888430  0.31442581     0.12000
N255        N  0.09108227  0.09795875  0.28268390     0.60800
H256        H  0.08810062  0.07298015  0.32770413     0.08200
O257        O  0.01088959  0.03945094  0.45096175    -0.40700
O258        O  0.07214884  0.07435689  0.45116967    -0.39800
O259        O  0.06351232  0.51275382  0.32727169    -0.39800
O260        O  0.00285895  0.48491605  0.33156178    -0.37500
O261        O  0.12126967  0.12612719  0.28499455    -0.38400
O262        O  0.09122294  0.07857909  0.26916086    -0.34600
O263        O  0.47018804  0.05869456  0.37352547    -0.36000
O264        O  0.45440870  0.52242117  0.35743311    -0.40300
C265        C  0.01005488  0.31925071  0.13227317    -0.14000
C266        C  0.03004340  0.30796437  0.12990895     0.16400
C267        C  0.04817073  0.31195288  0.10583170     0.02700
C268        C  0.04761709  0.32862525  0.08512839    -0.12500
C269        C  0.02954869  0.34167195  0.08817110    -0.03600
C270        C  0.01004786  0.33636413  0.11193298     0.01900
C271        C  0.03113775  0.29229758  0.15314751     0.08800
N272        N  0.06852542  0.30047946  0.10242150     0.65100
H273        H  0.06273561  0.33250220  0.06701675     0.18000
N274        N  0.49152964  0.34743509  0.11550171     0.75600
H275        H  0.49920247  0.31668748  0.15032047     0.09500
C276        C  0.04418754  0.30810471  0.17773075     0.03200
C277        C  0.03951523  0.29162309  0.20036848    -0.05500
C278        C  0.02125011  0.25911264  0.19966478    -0.23900
C279        C  0.00951539  0.24343480  0.17468902     0.12500
C280        C  0.01458469  0.26022126  0.15174332    -0.13000
N281        N  0.06144102  0.34085105  0.18033722     0.64200
H282        H  0.04982861  0.30469261  0.21878584     0.12000
N283        N  0.99203372  0.21066730  0.17201906     0.60800
H284        H  0.00407819  0.24778670  0.13293533     0.08200
O285        O  0.50415264  0.36971695  0.13179918    -0.40700
O286        O  0.45698300  0.32950941  0.10946378    -0.39800
O287        O  0.05373643  0.27550244  0.08911086    -0.39800
O288        O  0.10371112  0.31915476  0.10620852    -0.37500
O289        O  0.95670327  0.19066105  0.16918828    -0.38400
O290        O  0.01192818  0.20331078  0.16482990    -0.34600
O291        O  0.55140190  0.35073251  0.18847366    -0.36000
O292        O  0.09695442  0.36115189  0.18061263    -0.40300
C293        C  0.06444826  0.08074159  0.16856853    -0.14000
C294        C  0.03171632  0.05776807  0.15399632     0.16400
C295        C  0.49677922  0.04549016  0.16279510     0.02700
C296        C  0.49454871  0.05906457  0.18551879    -0.12500
C297        C  0.02779037  0.08379837  0.20105384    -0.03600
C298        C  0.06273381  0.09341498  0.19210572     0.01900
C299        C  0.03493234  0.04162692  0.13186382     0.08800
N300        N  0.46268512  0.02075458  0.14939342     0.65100
H301        H  0.46720753  0.05112863  0.19187487     0.18000
N302        N  0.09677320  0.11603656  0.20649424     0.75600
H303        H  0.09147663  0.08810585  0.16205967     0.09500
C304        C  0.02768574  0.04378284  0.10514457     0.03200
C305        C  0.03326486  0.02914983  0.08520057    -0.05500
C306        C  0.04506155  0.50867753  0.09098523    -0.23900
C307        C  0.04963373  0.50480273  0.11808887     0.12500
C308        C  0.54976330  0.52133604  0.13977701    -0.13000
N309        N  0.01649849  0.06193812  0.09764490     0.64200
H310        H  0.02686990  0.03062085  0.06487549     0.12000
N311        N  0.56948514  0.49090938  0.12759273     0.60800
H312        H  0.55497583  0.51907323  0.16023909     0.08200
O313        O  0.11051198  0.10636704  0.22032881    -0.40700
O314        O  0.11801873  0.14458943  0.19919087    -0.39800
O315        O  0.44652210  0.49411476  0.15783737    -0.39800
O316        O  0.44799374  0.53015886  0.13811205    -0.37500
O317        O  0.60454913  0.50630626  0.13000672    -0.38400
O318        O  0.54717927  0.46464699  0.13925787    -0.34600
O319        O  0.04150126  0.09014658  0.09014198    -0.36000
O320        O  0.98273155  0.04760571  0.09082253    -0.40300
C321        C  0.27803887  0.02565280  0.15712614    -0.14000
C322        C  0.24959326  0.02829272  0.15597913     0.16400
C323        C  0.24462968  0.04176596  0.17745865     0.02700
C324        C  0.26762479  0.05203882  0.19970022    -0.12500
C325        C  0.29543039  0.04872819  0.20144479    -0.03600
C326        C  0.30092654  0.03560607  0.17975922     0.01900
C327        C  0.22259999  0.01384692  0.13373059     0.08800
N328        N  0.21589723  0.04475379  0.17724067     0.65100
H329        H  0.26339729  0.06253675  0.21591494     0.18000
N330        N  0.32737767  0.03003363  0.18103822     0.75600
H331        H  0.28138382  0.01459998  0.14087744     0.09500
C332        C  0.23286427  0.02699167  0.10814660     0.03200
C333        C  0.20573736  0.01304675  0.08802402    -0.05500
C334        C  0.16604943  0.48073001  0.09320179    -0.23900
C335        C  0.15579901  0.46718643  0.11883883     0.12500
C336        C  0.18572485  0.98612935  0.13844838    -0.13000
N337        N  0.27035505  0.05491285  0.10241516     0.64200
H338        H  0.21386542  0.02409303  0.06865741     0.12000
N339        N  0.11861652  0.43876889  0.12459213     0.60800
H340        H  0.17467318  0.47082830  0.15869212     0.08200
O341        O  0.35790651  0.04799596  0.16836493    -0.40700
O342        O  0.31600787  0.00309984  0.18812120    -0.39800
O343        O  0.18588750  0.02501557  0.19001721    -0.39800
O344        O  0.22462930  0.07104242  0.17108009    -0.37500
O345        O  0.11202960  0.41256944  0.12355052    -0.38400
O346        O  0.09631251  0.44056332  0.13724417    -0.34600
O347        O  0.29143316  0.05259347  0.08860600    -0.36000
O348        O  0.27857766  0.08164319  0.10504429    -0.40300
C349        C  0.35868357  0.33521034  0.60910669    -0.14000
C350        C  0.36974608  0.35452944  0.63148919     0.16400
C351        C  0.40597360  0.38443109  0.63234968     0.02700
C352        C  0.43072149  0.39423453  0.61121694    -0.12500
C353        C  0.42014829  0.37474864  0.58896905    -0.03600
C354        C  0.38348630  0.34499639  0.58786170     0.01900
C355        C  0.34582797  0.34108533  0.65532652     0.08800
N356        N  0.41819911  0.40505680  0.65465829     0.65100
H357        H  0.45844461  0.41735095  0.61224294     0.18000
N358        N  0.37180431  0.32352623  0.56629366     0.75600
H359        H  0.33129325  0.31178708  0.60866203     0.09500
C360        C  0.30960426  0.33233425  0.65614377     0.03200
C361        C  0.28807863  0.31913202  0.67926138    -0.05500
C362        C  0.30200891  0.31431742  0.70162979    -0.23900
C363        C  0.33758912  0.32166736  0.70023264     0.12500
C364        C  0.35908527  0.33506182  0.67722391    -0.13000
N365        N  0.29473967  0.33762663  0.63410197     0.64200
H366        H  0.26092887  0.31373349  0.67999997     0.12000
N367        N  0.35181271  0.31462434  0.72147744     0.60800
H368        H  0.38620201  0.34039655  0.67629110     0.08200
O369        O  0.35110320  0.32141801  0.54839726    -0.40700
O370        O  0.37342219  0.30144525  0.56887142    -0.39800
O371        O  0.44075855  0.40765651  0.67109076    -0.39800
O372        O  0.41466503  0.42613875  0.65403774    -0.37500
O373        O  0.34400860  0.28793316  0.72184569    -0.38400
O374        O  0.37989916  0.33715516  0.73453695    -0.34600
O375        O  0.26982605  0.31438047  0.61979205    -0.36000
O376        O  0.29832139  0.36250653  0.63360575    -0.40300
C377        C  0.36684892  0.35919813  0.88956878    -0.14000
C378        C  0.37633187  0.35364266  0.86521818     0.16400
C379        C  0.41227824  0.36219413  0.86197164     0.02700
C380        C  0.43753279  0.37516022  0.88321181    -0.12500
C381        C  0.42801761  0.38029667  0.90787283    -0.03600
C382        C  0.39239268  0.37275959  0.91076228     0.01900
C383        C  0.35030973  0.34251966  0.84255174     0.08800
N384        N  0.42350022  0.35755658  0.83729278     0.65100
H385        H  0.46463818  0.38083701  0.88036838     0.18000
N386        N  0.38231259  0.38019699  0.93443516     0.75600
H387        H  0.33993323  0.35400575  0.89185202     0.09500
C388        C  0.31372848  0.31279774  0.84228643     0.03200
C389        C  0.29066942  0.30349843  0.81994999    -0.05500
C390        C  0.30366572  0.32330641  0.79776239    -0.23900
C391        C  0.33957009  0.35366495  0.79871424     0.12500
C392        C  0.36227310  0.36297582  0.82106631    -0.13000
N393        N  0.30025201  0.29119052  0.86386617     0.64200
H394        H  0.26329472  0.28007009  0.81945392     0.12000
N395        N  0.35333908  0.37562323  0.77736616     0.60800
H396        H  0.38960026  0.38643888  0.82162237     0.08200
O397        O  0.35950231  0.35821043  0.95035540    -0.40700
O398        O  0.38748862  0.40579275  0.93558205    -0.39800
O399        O  0.44380876  0.38068888  0.82171340    -0.39800
O400        O  0.42192597  0.33378633  0.83451031    -0.37500
O401        O  0.34738173  0.39520436  0.77777802    -0.38400
O402        O  0.37960050  0.38138959  0.76306700    -0.34600
O403        O  0.27529425  0.28664137  0.87895242    -0.36000
O404        O  0.30543374  0.27111117  0.86343247    -0.40300
C405        C  0.07906978  0.33382958  0.67661811    -0.14000
C406        C  0.06106301  0.31310877  0.65494896     0.16400
C407        C  0.05180190  0.28310473  0.65627148     0.02700
C408        C  0.05953028  0.27396947  0.67941537    -0.12500
C409        C  0.07664686  0.29441759  0.70131688    -0.03600
C410        C  0.08700703  0.32484058  0.69965797     0.01900
C411        C  0.05363740  0.32414188  0.63103837     0.08800
N412        N  0.03430711  0.26156250  0.63442785     0.65100
H413        H  0.05154299  0.25058562  0.68043594     0.18000
N414        N  0.10759316  0.34757324  0.72050081     0.75600
H415        H  0.08752237  0.35737342  0.67547252     0.09500
C416        C  0.02913949  0.33132683  0.63216445     0.03200
C417        C  0.02728812  0.34672356  0.61078118    -0.05500
C418        C  0.04939948  0.35498074  0.58787623    -0.23900
C419        C  0.07353322  0.34723834  0.58681789     0.12500
C420        C  0.07525658  0.33184336  0.60823400    -0.13000
N421        N  0.00645954  0.32344051  0.65516646     0.64200
H422        H  0.00852009  0.35231788  0.61211590     0.12000
N423        N  0.09918931  0.35745501  0.56537456     0.60800
H424        H  0.09515046  0.32740696  0.60761732     0.08200
O425        O  0.09029478  0.35197198  0.73663813    -0.40700
O426        O  0.14294919  0.36833950  0.71851359    -0.39800
O427        O  0.05444284  0.25975705  0.61891109    -0.39800
O428        O  0.99910556  0.23941271  0.63468707    -0.37500
O429        O  0.13210145  0.38362933  0.56738757    -0.38400
O430        O  0.09301396  0.33717205  0.54894313    -0.34600
O431        O  0.01703877  0.34449593  0.67231547    -0.36000
O432        O  0.98012605  0.29472637  0.66066916    -0.40300
C433        C  0.02837815  0.29034001  0.82477302    -0.14000
C434        C  0.05799190  0.30886939  0.84295495     0.16400
C435        C  0.09176737  0.31369817  0.83905241     0.02700
C436        C  0.09588724  0.30119553  0.81651604    -0.12500
C437        C  0.06700255  0.28416076  0.79760783    -0.03600
C438        C  0.03263426  0.27808323  0.80214566     0.01900
C439        C  0.05272058  0.32259255  0.86586793     0.08800
N440        N  0.12286543  0.33259407  0.85694359     0.65100
H441        H  0.12254468  0.30621920  0.81312554     0.18000
N442        N  0.00147905  0.25889343  0.78436987     0.75600
H443        H  0.00181671  0.28548083  0.82811767     0.09500
C444        C  0.04526338  0.34370281  0.86229636     0.03200
C445        C  0.04047493  0.35629677  0.88429024    -0.05500
C446        C  0.04271922  0.34830222  0.91026195    -0.23900
C447        C  0.04786334  0.32549408  0.91372521     0.12500
C448        C  0.05322118  0.31322935  0.89155495    -0.13000
N449        N  0.04363740  0.35350055  0.83648293     0.64200
H450        H  0.03558716  0.37299140  0.88079373     0.12000
N451        N  0.04782577  0.31440410  0.93934669     0.60800
H452        H  0.05747237  0.29603703  0.89440971     0.08200
O453        O  0.49573356  0.27292980  0.76574749    -0.40700
O454        O  0.97674221  0.22971378  0.78917836    -0.39800
O455        O  0.12939443  0.31901997  0.87312738    -0.39800
O456        O  0.14878514  0.36146227  0.85168437    -0.37700
O457        O  0.01787341  0.28858549  0.94759782    -0.38400
O458        O  0.07885522  0.32494840  0.94973769    -0.34600
O459        O  0.01182528  0.34107288  0.82636578    -0.36000
O460        O  0.07233319  0.37975777  0.82771439    -0.40300
C461        C  0.06876606  0.09704300  0.65604618    -0.14000
C462        C  0.07380229  0.07433963  0.65785551     0.16400
C463        C  0.08473153  0.06994945  0.68229473     0.02700
C464        C  0.08826225  0.08680939  0.70464531    -0.12500
C465        C  0.08204899  0.10887092  0.70328972    -0.03600
C466        C  0.07306394  0.11449632  0.67838568     0.01900
C467        C  0.06862904  0.05617339  0.63391273     0.08800
N468        N  0.09440403  0.04980783  0.68456062     0.65100
H469        H  0.09675972  0.08296762  0.72317151     0.18000
N470        N  0.58018309  0.14301486  0.67617956     0.75600
H471        H  0.57176517  0.10552820  0.63868182     0.09500
C472        C  0.03881822  0.02328107  0.63188849     0.03200
C473        C  0.03523620  0.50536218  0.61094855    -0.05500
C474        C  0.06248491  0.02212839  0.58904749    -0.23900
C475        C  0.09100626  0.05539806  0.59026418     0.12500
C476        C  0.09402982  0.07203290  0.61277795    -0.13000
N477        N  0.50731316  0.50689549  0.65297325     0.64200
H478        H  0.51075657  0.48101629  0.61041160     0.12000
N479        N  0.11819706  0.07246345  0.56958532     0.60800
H480        H  0.11670735  0.09739756  0.61397640     0.08200
O481        O  0.54828488  0.13579200  0.67296597    -0.40700
O482        O  0.60915826  0.16960284  0.66813213    -0.39800
O483        O  0.12863095  0.06198248  0.68271284    -0.39800
O484        O  0.07185102  0.02349225  0.69608331    -0.37500
O485        O  0.11396792  0.08696963  0.55267762    -0.38400
O486        O  0.15023930  0.07983431  0.57233384    -0.34600
O487        O  0.48190801  0.50947729  0.65179221    -0.36000
O488        O  0.50561944  0.98759035  0.66678506    -0.40300
C489        C  0.07264830  0.09918603  0.84776295    -0.14000
C490        C  0.07887877  0.07718108  0.84599332     0.16400
C491        C  0.08855416  0.07217520  0.82118294     0.02700
C492        C  0.09079115  0.08828796  0.79878276    -0.12500
C493        C  0.08416945  0.11008079  0.80027448    -0.03600
C494        C  0.07546852  0.11578849  0.82528960     0.01900
C495        C  0.07146126  0.05722163  0.86928410     0.08800
N496        N  0.09691741  0.05116733  0.81842272     0.65100
H497        H  0.09836916  0.08392139  0.78004999     0.18000
N498        N  0.06763069  0.13710335  0.82816084     0.75600
H499        H  0.06439065  0.10281077  0.86653596     0.09500
C500        C  0.09049438  0.07022095  0.89373193     0.03200
C501        C  0.08333701  0.05012102  0.91459979    -0.05500
C502        C  0.05728976  0.01703635  0.91172724    -0.23900
C503        C  0.03778815  0.50294954  0.88641242     0.12500
C504        C  0.04398605  0.02419343  0.86693610    -0.13000
N505        N  0.11821227  0.10367473  0.89745834     0.64200
H506        H  0.09926204  0.06050392  0.93285823     0.12000
N507        N  0.01174491  0.46939627  0.88248322     0.60800
H508        H  0.02785312  0.01387638  0.84874857     0.08200
O509        O  0.09334731  0.16482891  0.83653613    -0.40700
O510        O  0.03375553  0.12598726  0.82956354    -0.39800
O511        O  0.07481035  0.02585990  0.80529853    -0.39800
O512        O  0.12995197  0.06140393  0.82317974    -0.37500
O513        O  0.97721390  0.45451277  0.88713887    -0.38400
O514        O  0.53057841  0.46434273  0.86935626    -0.34600
O515        O  0.10988287  0.11788772  0.91103755    -0.36000
O516        O  0.15248829  0.11686235  0.89367419    -0.40300
C517        C  0.08696934  0.62645070  0.72780601     0.80600
N518        N  0.10074035  0.65701385  0.72814963    -0.77700
C519        C  0.10465982  0.67137677  0.75158563     0.83000
N520        N  0.09593591  0.65540991  0.77489358    -0.77700
C521        C  0.08221176  0.62481624  0.77473641     0.83100
N522        N  0.07801307  0.61086863  0.75115592    -0.79400
C523        C  0.08424781  0.78543340  0.72759124     0.80600
N524        N  0.10114054  0.77207873  0.72782982    -0.77700
C525        C  0.10490430  0.76158947  0.75097492     0.83000
N526        N  0.09176981  0.76457707  0.77388330    -0.77700
C527        C  0.07425739  0.77741831  0.77364516     0.83100
N528        N  0.07089395  0.78798688  0.75050117    -0.79400
C529        C  0.12520204  0.74894544  0.75146822     0.80600
N530        N  0.16359531  0.76919037  0.75084129    -0.77700
C531        C  0.18258760  0.75770456  0.75085662     0.83000
N532        N  0.16308926  0.72594633  0.75117269    -0.77700
C533        C  0.12481280  0.70558350  0.75194697     0.83100
N534        N  0.10581537  0.71708768  0.75212060    -0.79400
C535        C  0.28021132  0.80377459  0.72578599     0.80600
N536        N  0.30031090  0.81677114  0.74855245    -0.77700
C537        C  0.28274507  0.81112683  0.77205764     0.83000
N538        N  0.24440329  0.79198719  0.77279155    -0.77700
C539        C  0.22398069  0.77926747  0.75001742     0.83100
N540        N  0.24194456  0.78511575  0.72658192    -0.79400
Zr541      Zr  0.04526772  0.93102157  0.94960379     2.17500
O542        O  0.08786713  0.95247895  0.91172627    -0.51000
O543        O  0.98622835  0.90287082  0.92590169    -0.74200
O544        O  0.04217487  0.88933051  0.92866599    -0.81000
O545        O  0.05598209  0.00545017  0.95738588    -0.82700
O546        O  0.03883281  0.85719915  0.95922359    -0.78300
O547        O  0.05005190  0.97224441  0.92624230    -0.90000
O548        O  0.43907116  0.88263661  0.95524165    -0.75900
O549        O  0.00239232  0.88389312  0.97435372    -0.85400
O550        O  0.00871149  0.93960330  0.97477045    -0.85100
O551        O  0.08384633  0.92504234  0.97599055    -0.71900
O552        O  0.08962294  0.97738940  0.97587289    -0.84000
Zr553      Zr  0.04700235  0.93247108  0.05383720     2.26400
Zr554      Zr  0.04025608  0.87847272  0.00215999     2.06300
Zr555      Zr  0.05213881  0.98509115  0.00160323     2.10000
Zr556      Zr  0.46549837  0.89274105  0.99954993     1.78800
O557        O  0.10865824  0.54036744  0.00208996    -0.92800
O558        O  0.41508116  0.83558662  0.99771166    -0.40600
O559        O  0.00842006  0.93823141  0.02714256    -0.77200
O560        O  0.00256725  0.88607284  0.02763271    -0.95900
O561        O  0.08395365  0.92393466  0.02908168    -0.89200
O562        O  0.09022078  0.97950960  0.02879171    -0.92100
C563        C  0.45215409  0.88810642  0.93159295     1.01700
C564        C  0.05386894  0.99679289  0.93318022     1.14600
C565        C  0.03994219  0.86543980  0.93518716     1.05400
O566        O  0.98529520  0.82247893  0.00333527    -0.94200
O567        O  0.03803500  0.85934833  0.04641406    -0.90000
O568        O  0.03823629  0.88975145  0.07742751    -0.83100
C569        C  0.03687410  0.86643437  0.07055309     1.12000
O570        O  0.17041848  0.99478577  0.96657318    -0.96200
Zr571      Zr  0.12629313  0.97041035  0.00352799     1.88900
O572        O  0.10576450  0.95899189  0.07778593    -0.72900
O573        O  0.08582895  0.86940743  0.00323954    -0.52100
O574        O  0.16244815  0.95196239  0.99961814    -0.96800
O575        O  0.17439993  0.52613024  0.00669215    -0.54000
O576        O  0.15238266  0.97887559  0.04748806    -0.73400
C577        C  0.14022639  0.97348902  0.07139136     0.99000
O578        O  0.49963442  0.90725505  0.09071117    -0.62200
O579        O  0.51200541  0.99684164  0.00196128    -0.57000
O580        O  0.04864216  0.97247934  0.07652677    -0.93700
O581        O  0.05046781  0.00342761  0.04547292    -0.92100
O582        O  0.43401530  0.91553895  0.99971181    -0.92500
O583        O  0.42153793  0.87306716  0.03636602    -0.91200
C584        C  0.04921071  0.99536402  0.06969170     1.17800
H585        H  0.99483267  0.94339768  0.96327166     0.33800
H586        H  0.48227474  0.86484406  0.03831623     0.44600
H587        H  0.10626185  0.99760434  0.04016420     0.38100
H588        H  0.09832878  0.92202630  0.96468475     0.34600
H589        H  0.41823483  0.82902262  0.98035146     0.26400
H590        H  0.07076227  0.84639985  0.99997807     0.32300
H591        H  0.18705868  0.96883094  0.00801912     0.38300
H592        H  0.40877416  0.89885054  0.99203445     0.32700
H593        H  0.99146697  0.98324534  0.98427026     0.31600
H594        H  0.09865419  0.55108074  0.00791706     0.33300
H595        H  0.19861297  0.53021319  0.00874000     0.32200
H596        H  0.43327047  0.86999368  0.05100539     0.36200
H597        H  0.48576916  0.91532974  0.08765351     0.29000
H598        H  0.07222065  0.93846814  0.89661988     0.33200
H599        H  0.15679238  0.48919482  0.95087588     0.36100
H600        H  0.49650508  0.98641524  0.98577178     0.28700
H601        H  0.48060850  0.88429418  0.08695430     0.41500
H602        H  0.46614344  0.81694537  0.98725216     0.31600
H603        H  0.42231997  0.82689006  0.01088669     0.39200
H604        H  0.17018338  0.53157701  0.02422150     0.31100
H605        H  0.10122377  0.87964100  0.98703812     0.31100
H606        H  0.10528867  0.94802718  0.91540063     0.31400
Zr607      Zr  0.04967940  0.93621136  0.44718805     2.17500
O608        O  0.51284094  0.92001702  0.40764393    -0.51000
O609        O  0.10842262  0.96435279  0.42308205    -0.74200
O610        O  0.04954822  0.97643542  0.42681232    -0.81000
O611        O  0.03741208  0.86116357  0.45463886    -0.82700
O612        O  0.05128681  0.00765141  0.45756944    -0.78300
O613        O  0.03794712  0.89179364  0.42378842    -0.90000
O614        O  0.15578878  0.98821747  0.45335936    -0.75900
O615        O  0.09290102  0.98333908  0.47230017    -0.85400
O616        O  0.08656593  0.92758455  0.47204759    -0.85100
O617        O  0.01109205  0.94202481  0.47369973    -0.71900
O618        O  0.00568182  0.88986251  0.47326794    -0.84000
Zr619      Zr  0.04672165  0.93399491  0.55171572     2.26400
Zr620      Zr  0.05491251  0.98871128  0.49995155     2.06300
Zr621      Zr  0.04325676  0.88221406  0.49903402     2.10000
Zr622      Zr  0.12881520  0.97426143  0.49764492     1.78800
O623        O  0.98990179  0.82574671  0.50040391    -0.92800
O624        O  0.16943422  0.53513968  0.49920715    -0.40600
O625        O  0.08602075  0.92890019  0.52513689    -0.77200
O626        O  0.09179004  0.98045504  0.52577268    -0.95900
O627        O  0.01054430  0.94303427  0.52657948    -0.89200
O628        O  0.00451066  0.88731181  0.52594083    -0.92100
C629        C  0.14338857  0.98168840  0.42941328     1.01700
C630        C  0.03558576  0.86794315  0.43055210     1.14600
C631        C  0.04963586  0.99921706  0.43349472     1.05400
O632        O  0.09872532  0.54354717  0.50060589    -0.94200
O633        O  0.06311225  0.01211562  0.54326109    -0.90000
O634        O  0.05228660  0.97650210  0.57371330    -0.83100
C635        C  0.05939815  0.00255533  0.56717381     1.12000
O636        O  0.42728205  0.87923306  0.45987764    -0.96200
Zr637      Zr  0.46705701  0.89680487  0.49907694     1.88900
O638        O  0.98619280  0.90420147  0.57418635    -0.72900
O639        O  0.50404661  0.99464716  0.50310216    -0.52100
O640        O  0.42893595  0.91353456  0.49998166    -0.96800
O641        O  0.42173479  0.83923062  0.49548203    -0.54000
O642        O  0.43480443  0.87895092  0.54130099    -0.73400
C643        C  0.44609577  0.88539494  0.56542448     0.99000
O644        O  0.08881284  0.95549599  0.59010894    -0.62200
O645        O  0.09013459  0.87463379  0.49768821    -0.57000
O646        O  0.04600466  0.89408961  0.57415980    -0.93700
O647        O  0.04807702  0.86522182  0.54275449    -0.92100
O648        O  0.16794414  0.95848159  0.49684101    -0.92500
O649        O  0.17202890  0.99398283  0.53505136    -0.91200
C650        C  0.04787027  0.87247213  0.56706777     1.17800
H651        H  0.10016446  0.92384659  0.46047818     0.33800
H652        H  0.10866156  0.99834593  0.53742178     0.44600
H653        H  0.98837582  0.86880427  0.53713380     0.38100
H654        H  0.49674175  0.94645777  0.46169025     0.34600
H655        H  0.16776695  0.54146132  0.48125312     0.26400
H656        H  0.99686954  0.98917744  0.51957586     0.32300
H657        H  0.43844681  0.92803834  0.51539586     0.38300
H658        H  0.16425804  0.94932984  0.47898316     0.32700
H659        H  0.10189893  0.88214011  0.47995762     0.31600
H660        H  0.00127448  0.81563091  0.50412600     0.33300
H661        H  0.42381991  0.83131071  0.51240908     0.32200
H662        H  0.15591567  0.47978414  0.54901939     0.36200
H663        H  0.10401007  0.94852401  0.58799877     0.29000
H664        H  0.02598216  0.93071172  0.39345674     0.33200
H665        H  0.44119875  0.87779628  0.44581496     0.36100
H666        H  0.11012648  0.89073938  0.51010616     0.28700
H667        H  0.10725398  0.97864064  0.58707298     0.41500
H668        H  0.08524524  0.55222574  0.50083382     0.31600
H669        H  0.15655362  0.54025356  0.51081040     0.39200
H670        H  0.43265292  0.83382103  0.48211100     0.31100
H671        H  0.48936283  0.98495665  0.48650089     0.31100
H672        H  0.49472141  0.92386349  0.41062953     0.31400
C673        C  0.31627330  0.55735921  0.22661595     0.80600
N674        N  0.29806625  0.55315160  0.24957685    -0.77700
C675        C  0.31716097  0.56580828  0.27267080     0.83000
N676        N  0.35517201  0.58309443  0.27280962    -0.77700
C677        C  0.37382438  0.58747685  0.25004974     0.83100
N678        N  0.35438485  0.57473042  0.22686069    -0.79400
C679        C  0.02331916  0.59200099  0.22600159     0.80600
N680        N  0.03491103  0.58830975  0.24942264    -0.77700
C681        C  0.02648354  0.59512480  0.27280022     0.83000
N682        N  0.00639715  0.60559367  0.27248870    -0.77700
C683        C  0.49636101  0.61063032  0.24966979     0.83100
N684        N  0.00288651  0.60217018  0.22612700    -0.79400
C685        C  0.47385605  0.62104166  0.24972060     0.80600
N686        N  0.43548165  0.59962337  0.24871306    -0.77700
C687        C  0.41510992  0.60982938  0.25007654     0.83000
N688        N  0.43312370  0.64125718  0.25227888    -0.77700
C689        C  0.47129050  0.66254049  0.25314532     0.83100
N690        N  0.49161542  0.65242330  0.25186876    -0.79400
C691        C  0.01715678  0.74305554  0.22544308     0.80600
N692        N  0.00018904  0.71178241  0.22674794    -0.77700
C693        C  0.99277371  0.69754919  0.25063874     0.83000
N694        N  0.00182440  0.71452884  0.27333616    -0.77700
C695        C  0.01891034  0.74597030  0.27236214     0.83100
N696        N  0.02634335  0.75985749  0.24831253    -0.79400
C697        C  0.01006826  0.82235882  0.36553728    -0.14000
C698        C  0.03079973  0.81168540  0.36764647     0.16400
C699        C  0.05224277  0.81891345  0.39074867     0.02700
C700        C  0.05234790  0.83635482  0.41127901    -0.12500
C701        C  0.03207731  0.84753650  0.40906210    -0.03600
C702        C  0.01060825  0.84022650  0.38582272     0.01900
C703        C  0.03131474  0.79501940  0.34459002     0.08800
N704        N  0.07580248  0.81040959  0.39308890     0.65100
H705        H  0.06960552  0.84222740  0.42866120     0.18000
N706        N  0.49787199  0.85876837  0.38020561     0.75600
H707        H  0.50044570  0.82350247  0.34648805     0.09500
C708        C  0.00953848  0.76186257  0.34391367     0.03200
C709        C  0.00737463  0.74681062  0.32057622    -0.05500
C710        C  0.02590696  0.76398678  0.29725620    -0.23900
C711        C  0.04845342  0.79752524  0.29822111     0.12500
C712        C  0.05086519  0.81249408  0.32175394    -0.13000
N713        N  0.47782940  0.74200256  0.36577097     0.64200
H714        H  0.47979204  0.71968729  0.32042452     0.12000
N715        N  0.06897779  0.81699129  0.27569338     0.60800
H716        H  0.06745148  0.83801562  0.32200963     0.08200
O717        O  0.46343784  0.84274928  0.38594466    -0.40700
O718        O  0.51273541  0.88155241  0.36421572    -0.39800
O719        O  0.11044636  0.83085985  0.38783163    -0.39800
O720        O  0.06480747  0.78680553  0.40703130    -0.37500
O721        O  0.10395466  0.83154158  0.27448107    -0.38400
O722        O  0.05524063  0.82674505  0.26192484    -0.34600
O723        O  0.44480414  0.73291009  0.36450724    -0.36000
O724        O  0.99945479  0.73259028  0.38111094    -0.40300
C725        C  0.19052930  0.99436668  0.36299686    -0.14000
C726        C  0.22660809  0.52488116  0.36719163     0.16400
C727        C  0.23527939  0.54068818  0.39165555     0.02700
C728        C  0.20803457  0.52703327  0.41175320    -0.12500
C729        C  0.17153293  0.99536148  0.40776548    -0.03600
C730        C  0.16300001  0.98036162  0.38277098     0.01900
C731        C  0.25314059  0.53902405  0.34456047     0.08800
N732        N  0.27071859  0.57140356  0.39591105     0.65100
H733        H  0.21513010  0.53968801  0.43035135     0.18000
N734        N  0.12700688  0.95048806  0.37726246     0.75600
H735        H  0.18357806  0.98266211  0.34390210     0.09500
C736        C  0.28378258  0.53899084  0.34292447     0.03200
C737        C  0.30530633  0.54930095  0.31969760    -0.05500
C738        C  0.29637822  0.55901170  0.29765772    -0.23900
C739        C  0.26617702  0.55972126  0.29954837     0.12500
C740        C  0.24502465  0.54982464  0.32291261    -0.13000
N741        N  0.29195373  0.52660590  0.36383692     0.64200
H742        H  0.32802910  0.54820203  0.31844453     0.12000
N743        N  0.25712111  0.57118168  0.27835908     0.60800
H744        H  0.22152140  0.54994135  0.32398437     0.08200
O745        O  0.12282021  0.92545716  0.37988937    -0.40700
O746        O  0.10325290  0.94970483  0.36380064    -0.39800
O747        O  0.27282908  0.59543808  0.39319194    -0.39800
O748        O  0.29590123  0.57393272  0.40903687    -0.37500
O749        O  0.22992868  0.55146028  0.26318772    -0.38400
O750        O  0.26795542  0.59892187  0.27992293    -0.34600
O751        O  0.28214994  0.00028904  0.36414061    -0.36000
O752        O  0.32322310  0.04862067  0.37857018    -0.40300
C753        C  0.04597602  0.55850954  0.39429586    -0.14000
C754        C  0.04163924  0.54680483  0.36859696     0.16400
C755        C  0.04239829  0.02009023  0.36373286     0.02700
C756        C  0.04672785  0.00687867  0.38537738    -0.12500
C757        C  0.04692903  0.01594217  0.41154182    -0.03600
C758        C  0.04955551  0.54471487  0.41614824     0.01900
C759        C  0.03951082  0.56237625  0.34568782     0.08800
N760        N  0.04036736  0.00835252  0.33784851     0.65100
H761        H  0.04930938  0.98883629  0.38139419     0.18000
N762        N  0.05392778  0.55771010  0.44186531     0.75600
H763        H  0.04693126  0.57864863  0.39737955     0.09500
C764        C  0.51310793  0.56577999  0.34193198     0.03200
C765        C  0.51168241  0.57959684  0.31923063    -0.05500
C766        C  0.03371877  0.58674564  0.29852831    -0.23900
C767        C  0.06494027  0.58787042  0.30285189     0.12500
C768        C  0.06761482  0.57591095  0.32633591    -0.13000
N769        N  0.48290418  0.55116855  0.36057560     0.64200
H770        H  0.48768495  0.57884105  0.31664526     0.12000
N771        N  0.09404270  0.60057837  0.28363970     0.60800
H772        H  0.09147999  0.57653152  0.32923079     0.08200
O773        O  0.02523805  0.55077175  0.45354943    -0.40700
O774        O  0.08622804  0.58196147  0.44919430    -0.39800
O775        O  0.07006112  0.01590118  0.32739318    -0.39800
O776        O  0.00881599  0.98428507  0.32927169    -0.37500
O777        O  0.12262507  0.62953444  0.28508549    -0.38400
O778        O  0.09684716  0.58179953  0.27179994    -0.34600
O779        O  0.48034702  0.56842734  0.37531510    -0.36000
O780        O  0.44916962  0.01368834  0.35596548    -0.40300
C781        C  0.01816218  0.82458493  0.13630028    -0.14000
C782        C  0.03718602  0.81258454  0.13242804     0.16400
C783        C  0.05509615  0.81755726  0.10808385     0.02700
C784        C  0.05384084  0.83451214  0.08802478    -0.12500
C785        C  0.03520679  0.84699234  0.09187507    -0.03600
C786        C  0.01704114  0.84173558  0.11639317     0.01900
C787        C  0.03678451  0.79427590  0.15406303     0.08800
N788        N  0.07558994  0.80637925  0.10368361     0.65100
H789        H  0.06841562  0.83863403  0.06956503     0.18000
N790        N  0.49777552  0.85248264  0.12209911     0.75600
H791        H  0.50587375  0.82092471  0.15577516     0.09500
C792        C  0.05960536  0.80967590  0.17660822     0.03200
C793        C  0.05373997  0.79213170  0.19896226    -0.05500
C794        C  0.02495974  0.75916668  0.19965901    -0.23900
C795        C  0.00334474  0.74341252  0.17639616     0.12500
C796        C  0.00943116  0.76117248  0.15388723    -0.13000
N797        N  0.08800104  0.84332713  0.17754782     0.64200
H798        H  0.07136518  0.80469259  0.21620979     0.12000
N799        N  0.97378172  0.70986078  0.17559579     0.60800
H800        H  0.99149620  0.74920943  0.13664103     0.08200
O801        O  0.51628744  0.87797533  0.13522481    -0.40700
O802        O  0.46232301  0.83540091  0.12105217    -0.39800
O803        O  0.06076031  0.78166907  0.08997919    -0.39800
O804        O  0.11077506  0.82500245  0.10747736    -0.37500
O805        O  0.94030558  0.69870705  0.17997565    -0.38400
O806        O  0.97950792  0.69280772  0.16391201    -0.34600
O807        O  0.56842423  0.85458872  0.19076525    -0.36000
O808        O  0.12136242  0.85555049  0.17132804    -0.40300
C809        C  0.06342657  0.57548543  0.16920414    -0.14000
C810        C  0.03106460  0.55433796  0.15370109     0.16400
C811        C  0.49949287  0.54656326  0.16371968     0.02700
C812        C  0.49802671  0.56078929  0.18625673    -0.12500
C813        C  0.02757059  0.58056381  0.20084863    -0.03600
C814        C  0.06191783  0.58821308  0.19278194     0.01900
C815        C  0.03362641  0.53788034  0.13154651     0.08800
N816        N  0.46502688  0.52244576  0.15037501     0.65100
H817        H  0.47106031  0.55391749  0.19227337     0.18000
N818        N  0.09556636  0.60869050  0.20812463     0.75600
H819        H  0.08994650  0.58136197  0.16336111     0.09500
C820        C  0.02951838  0.54225866  0.10467040     0.03200
C821        C  0.03512775  0.52763845  0.08476877    -0.05500
C822        C  0.04668419  0.01271680  0.09120280    -0.23900
C823        C  0.05531651  0.01179353  0.11797469     0.12500
C824        C  0.54801508  0.02157719  0.13960993    -0.13000
N825        N  0.02113704  0.56234422  0.09703798     0.64200
H826        H  0.03149164  0.53114887  0.06428481     0.12000
N827        N  0.56673012  0.99016143  0.12827047     0.60800
H828        H  0.55333932  0.01979310  0.16017429     0.08200
O829        O  0.10836178  0.59691039  0.21982289    -0.40700
O830        O  0.11780093  0.63789684  0.20289507    -0.39800
O831        O  0.44535745  0.99246927  0.15652769    -0.39800
O832        O  0.44492918  0.02753552  0.13677652    -0.37500
O833        O  0.60158212  0.00548556  0.13196526    -0.38400
O834        O  0.54357973  0.96302961  0.13843201    -0.34600
O835        O  0.04790542  0.59040072  0.09011553    -0.36000
O836        O  0.98816314  0.54979604  0.08936959    -0.40300
C837        C  0.27774903  0.52311950  0.15723347    -0.14000
C838        C  0.24710786  0.52301789  0.15658650     0.16400
C839        C  0.24086998  0.53542926  0.17824104     0.02700
C840        C  0.26444748  0.54692664  0.20024445    -0.12500
C841        C  0.29445142  0.54626830  0.20156981    -0.03600
C842        C  0.30156545  0.53470095  0.17950375     0.01900
C843        C  0.22025333  0.50806174  0.13419105     0.08800
N844        N  0.21081343  0.53680738  0.17820096     0.65100
H845        H  0.25913962  0.55661049  0.21648398     0.18000
N846        N  0.33144641  0.53311446  0.17969455     0.75600
H847        H  0.28250613  0.51330136  0.14073039     0.09500
C848        C  0.23105318  0.52034898  0.10834863     0.03200
C849        C  0.20400234  0.50681945  0.08822925    -0.05500
C850        C  0.16832755  0.98588045  0.09288005    -0.23900
C851        C  0.15863555  0.97191052  0.11829336     0.12500
C852        C  0.18287033  0.48113363  0.13903825    -0.13000
N853        N  0.26906696  0.54717779  0.10232354     0.64200
H854        H  0.21275990  0.51747497  0.06872110     0.12000
N855        N  0.12200750  0.94271323  0.12375187     0.60800
H856        H  0.17799540  0.97537303  0.15793316     0.08200
O857        O  0.36107720  0.55343148  0.16678316    -0.40700
O858        O  0.32413991  0.50735530  0.18584683    -0.39800
O859        O  0.18174934  0.51702396  0.19182420    -0.39800
O860        O  0.21767684  0.56217264  0.17123107    -0.37500
O861        O  0.11672442  0.91709435  0.12215696    -0.38400
O862        O  0.09847269  0.94317494  0.13612842    -0.34600
O863        O  0.28955358  0.54299846  0.09003561    -0.36000
O864        O  0.27843772  0.57444913  0.10280838    -0.40300
C865        C  0.35599900  0.83130425  0.60623588    -0.14000
C866        C  0.36610930  0.85002064  0.62894597     0.16400
C867        C  0.40185484  0.88036149  0.63014548     0.02700
C868        C  0.42693532  0.89122364  0.60908356    -0.12500
C869        C  0.41750156  0.87234747  0.58660750    -0.03600
C870        C  0.38139427  0.84207349  0.58513212     0.01900
C871        C  0.34201319  0.83591117  0.65277764     0.08800
N872        N  0.41356964  0.90026300  0.65291798     0.65100
H873        H  0.45423264  0.91465436  0.61047324     0.18000
N874        N  0.37113797  0.82095929  0.56353938     0.75600
H875        H  0.32908061  0.80755924  0.60549731     0.09500
C876        C  0.30555105  0.82670892  0.65386380     0.03200
C877        C  0.28508368  0.81489670  0.67756314    -0.05500
C878        C  0.30019432  0.81175581  0.70023557    -0.23900
C879        C  0.33558649  0.81882757  0.69840845     0.12500
C880        C  0.35607722  0.83093386  0.67486521    -0.13000
N881        N  0.28933975  0.83012433  0.63150309     0.64200
H882        H  0.25784192  0.80931580  0.67846402     0.12000
N883        N  0.35064525  0.81280639  0.71981177     0.60800
H884        H  0.38325046  0.83638956  0.67376752     0.08200
O885        O  0.34847082  0.81665430  0.54619263    -0.40700
O886        O  0.37621727  0.80090267  0.56574118    -0.39800
O887        O  0.43575917  0.90227067  0.66932833    -0.39800
O888        O  0.41063565  0.92170532  0.65260342    -0.37500
O889        O  0.34253176  0.78603109  0.72119055    -0.38400
O890        O  0.37940518  0.83593287  0.73195300    -0.34600
O891        O  0.26409338  0.80578439  0.61830379    -0.36000
O892        O  0.29211600  0.85456630  0.62978026    -0.40300
C893        C  0.36767510  0.86023365  0.88855590    -0.14000
C894        C  0.37584699  0.85160379  0.86530024     0.16400
C895        C  0.40928863  0.85562028  0.86381073     0.02700
C896        C  0.43357237  0.86756946  0.88560466    -0.12500
C897        C  0.42553650  0.87614790  0.90905599    -0.03600
C898        C  0.39233557  0.87277368  0.91029468     0.01900
C899        C  0.35098413  0.84121908  0.84199852     0.08800
N900        N  0.41894698  0.84751325  0.84034413     0.65100
H901        H  0.45882973  0.86994502  0.88415299     0.18000
N902        N  0.38434763  0.88375030  0.93265420     0.75600
H903        H  0.34264508  0.85823797  0.88948635     0.09500
C904        C  0.31435588  0.81169485  0.84120409     0.03200
C905        C  0.29183410  0.80293086  0.81866266    -0.05500
C906        C  0.30523335  0.82318663  0.79674844    -0.23900
C907        C  0.34139128  0.85334536  0.79808539     0.12500
C908        C  0.36387373  0.86198711  0.82059110    -0.13000
N909        N  0.30011390  0.78987494  0.86267530     0.64200
H910        H  0.26430297  0.77964207  0.81791262     0.12000
N911        N  0.35519553  0.87597797  0.77729357     0.60800
H912        H  0.39150981  0.88519308  0.82146440     0.08200
O913        O  0.35753174  0.86380216  0.94786283    -0.40700
O914        O  0.39699238  0.91208827  0.93309470    -0.39800
O915        O  0.44188925  0.86909044  0.82417410    -0.39800
O916        O  0.41277026  0.82149083  0.83940621    -0.37500
O917        O  0.34960862  0.89577205  0.77868420    -0.38400
O918        O  0.38098836  0.88180381  0.76238140    -0.34600
O919        O  0.27576244  0.78614661  0.87789886    -0.36000
O920        O  0.30423752  0.76914179  0.86218768    -0.40300
C921        C  0.08144722  0.83563997  0.67766008    -0.14000
C922        C  0.06403928  0.81488941  0.65594914     0.16400
C923        C  0.05555232  0.78519301  0.65738562     0.02700
C924        C  0.06349758  0.77638797  0.68063719    -0.12500
C925        C  0.07970473  0.79673295  0.70264900    -0.03600
C926        C  0.08921970  0.82684096  0.70091945     0.01900
C927        C  0.05583397  0.82534062  0.63202371     0.08800
N928        N  0.03781689  0.76333224  0.63576491     0.65100
H929        H  0.05591674  0.75315721  0.68177185     0.18000
N930        N  0.10810491  0.84924219  0.72216677     0.75600
H931        H  0.08918465  0.85892740  0.67648845     0.09500
C932        C  0.03098817  0.83215078  0.63330042     0.03200
C933        C  0.02847520  0.84714923  0.61191153    -0.05500
C934        C  0.04981498  0.85490725  0.58868054    -0.23900
C935        C  0.07357953  0.84678077  0.58719572     0.12500
C936        C  0.07644551  0.83228384  0.60881011    -0.13000
N937        N  0.00808968  0.82373379  0.65626857     0.64200
H938        H  0.00962907  0.85264827  0.61342428     0.12000
N939        N  0.09723943  0.85515094  0.56479401     0.60800
H940        H  0.09620106  0.82771106  0.60788294     0.08200
O941        O  0.08945285  0.85313565  0.73731201    -0.40700
O942        O  0.14354629  0.87017692  0.72148432    -0.39800
O943        O  0.05772923  0.76130192  0.62020789    -0.39800
O944        O  0.00259160  0.74129024  0.63619527    -0.37500
O945        O  0.13039183  0.88123934  0.56507041    -0.38400
O946        O  0.08940384  0.83351444  0.54930737    -0.34600
O947        O  0.01839124  0.84437423  0.67377218    -0.36000
O948        O  0.98168198  0.79488542  0.66128815    -0.40300
C949        C  0.02448849  0.79108311  0.82415493    -0.14000
C950        C  0.05160956  0.80661631  0.84442482     0.16400
C951        C  0.08434245  0.80935297  0.84215034     0.02700
C952        C  0.08978239  0.79775011  0.81959387    -0.12500
C953        C  0.06380148  0.78411404  0.79868025    -0.03600
C954        C  0.03056617  0.78041772  0.80121760     0.01900
C955        C  0.04511717  0.81936735  0.86778789     0.08800
N956        N  0.11339447  0.82525218  0.86182777     0.65100
H957        H  0.11563612  0.80107985  0.81781641     0.18000
N958        N  0.00227693  0.76531974  0.78101075     0.75600
H959        H  0.99831416  0.78715106  0.82605822     0.09500
C960        C  0.03452057  0.83852616  0.86499771     0.03200
C961        C  0.03136888  0.85174574  0.88738098    -0.05500
C962        C  0.03894152  0.84689381  0.91296276    -0.23900
C963        C  0.04709469  0.82601422  0.91591405     0.12500
C964        C  0.04966445  0.81233042  0.89343854    -0.13000
N965        N  0.02835804  0.84613371  0.83962301     0.64200
H966        H  0.02389252  0.86679141  0.88442179     0.12000
N967        N  0.05441132  0.81927295  0.94123497     0.60800
H968        H  0.05580234  0.79635806  0.89611776     0.08200
O969        O  0.49157498  0.77344223  0.76953002    -0.40700
O970        O  0.97452431  0.73620658  0.78319053    -0.39800
O971        O  0.11783462  0.80915190  0.87647747    -0.39800
O972        O  0.14007854  0.85460987  0.85954953    -0.37700
O973        O  0.02818078  0.79397709  0.95282847    -0.38400
O974        O  0.08811271  0.83290934  0.94779021    -0.34600
O975        O  0.99493374  0.83265040  0.83236648    -0.36000
O976        O  0.05493290  0.87208005  0.82901165    -0.40300
C977        C  0.07599507  0.59979425  0.65546636    -0.14000
C978        C  0.07628526  0.57443568  0.65851362     0.16400
C979        C  0.08345621  0.56838875  0.68380044     0.02700
C980        C  0.08721782  0.58598522  0.70564542    -0.12500
C981        C  0.08514886  0.61048927  0.70304921    -0.03600
C982        C  0.08087967  0.61811278  0.67729448     0.01900
C983        C  0.07010746  0.55533482  0.63492749     0.08800
N984        N  0.08919706  0.54579598  0.68757460     0.65100
H985        H  0.09246141  0.58060304  0.72484972     0.18000
N986        N  0.58039798  0.64541718  0.67553245     0.75600
H987        H  0.57066319  0.60722336  0.63814885     0.09500
C988        C  0.03915364  0.52262109  0.63312896     0.03200
C989        C  0.03644193  0.00658321  0.60982728    -0.05500
C990        C  0.06054867  0.52025590  0.58975057    -0.23900
C991        C  0.09025177  0.55327265  0.59076219     0.12500
C992        C  0.09506933  0.57040594  0.61344318    -0.13000
N993        N  0.51136437  0.00957864  0.65310331     0.64200
H994        H  0.51151351  0.98316804  0.60953105     0.12000
N995        N  0.11651836  0.56956420  0.56946360     0.60800
H996        H  0.11857206  0.59560863  0.61436659     0.08200
O997        O  0.54933234  0.63980561  0.67274040    -0.40700
O998        O  0.61018311  0.67145493  0.66742705    -0.39800
O999        O  0.12222432  0.55501720  0.68556533    -0.39800
O1000       O  0.06521256  0.52103960  0.70067190    -0.37500
O1001       O  0.11278545  0.58493817  0.55322865    -0.38400
O1002       O  0.14763954  0.57503660  0.57077573    -0.34600
O1003       O  0.48524864  0.01119409  0.65086458    -0.36000
O1004       O  0.50039041  0.48345072  0.66490961    -0.40300
C1005       C  0.06338385  0.59469516  0.84654802    -0.14000
C1006       C  0.07315008  0.57498823  0.84515851     0.16400
C1007       C  0.08543842  0.57194243  0.82064947     0.02700
C1008       C  0.08781706  0.58830613  0.79841055    -0.12500
C1009       C  0.07820435  0.60810553  0.79957100    -0.03600
C1010       C  0.06570954  0.61115860  0.82406124     0.01900
C1011       C  0.06736203  0.55553782  0.86848382     0.08800
N1012       N  0.09635727  0.55270490  0.81799282     0.65100
H1013       H  0.09787856  0.58570056  0.78003923     0.18000
N1014       N  0.05316801  0.62922243  0.82619920     0.75600
H1015       H  0.05280304  0.59657293  0.86498557     0.09500
C1016       C  0.08554035  0.56902128  0.89313088     0.03200
C1017       C  0.08033314  0.54947314  0.91391704    -0.05500
C1018       C  0.05735155  0.51645102  0.91069950    -0.23900
C1019       C  0.03663844  0.00410742  0.88779894     0.12500
C1020       C  0.04284444  0.52245891  0.86581020    -0.13000
N1021       N  0.11054907  0.60253338  0.89713830     0.64200
H1022       H  0.09545826  0.56034899  0.93237012     0.12000
N1023       N  0.00700965  0.97077058  0.88467808     0.60800
H1024       H  0.02735881  0.51158396  0.84747582     0.08200
O1025       O  0.07516586  0.65680172  0.83586660    -0.40700
O1026       O  0.01824038  0.61499615  0.82546538    -0.39800
O1027       O  0.07411670  0.52601200  0.80679187    -0.39800
O1028       O  0.13080174  0.56557223  0.81994870    -0.37500
O1029       O  0.97377238  0.95908761  0.89075490    -0.38400
O1030       O  0.52212680  0.95712607  0.86986362    -0.34600
O1031       O  0.10025683  0.61455265  0.91179705    -0.36000
O1032       O  0.14516122  0.61830829  0.89215862    -0.40300
C1033       C  0.59090592  0.12719274  0.73032536     0.80600
N1034       N  0.60306322  0.15723830  0.73030820    -0.77700
C1035       C  0.60804313  0.17220418  0.75356086     0.83000
N1036       N  0.60181015  0.15733981  0.77712071    -0.77700
C1037       C  0.58951177  0.12716902  0.77736783     0.83100
N1038       N  0.58444548  0.11260750  0.75391962    -0.79400
C1039       C  0.58441565  0.28431590  0.72477513     0.80600
N1040       N  0.60065868  0.27041394  0.72495217    -0.77700
C1041       C  0.60481543  0.26031916  0.74817945     0.83000
N1042       N  0.59312754  0.26451326  0.77119903    -0.77700
C1043       C  0.57629392  0.27787017  0.77102862     0.83100
N1044       N  0.57233717  0.28797327  0.74783439    -0.79400
C1045       C  0.62569888  0.24833209  0.74897160     0.80600
N1046       N  0.66402445  0.26919322  0.74845949    -0.77700
C1047       C  0.68386838  0.25860970  0.75023072     0.83000
N1048       N  0.66534728  0.22712712  0.75241455    -0.77700
C1049       C  0.62709035  0.20614176  0.75303480     0.83100
N1050       N  0.60716857  0.21673183  0.75131715    -0.79400
C1051       C  0.78235165  0.30804250  0.72653909     0.80600
N1052       N  0.80148343  0.32010397  0.74970488    -0.77700
C1053       C  0.78293792  0.31273434  0.77298026     0.83000
N1054       N  0.74460154  0.29268900  0.77312569    -0.77700
C1055       C  0.72512477  0.28093836  0.74995613     0.83100
N1056       N  0.74400859  0.28857209  0.72668694    -0.79400
Zr1057     Zr  0.54906156  0.43373911  0.94821196     2.17500
O1058       O  0.59082189  0.45646723  0.90984223    -0.51000
O1059       O  0.49001952  0.40727605  0.92428309    -0.74200
O1060       O  0.54728347  0.39355848  0.92532583    -0.81000
O1061       O  0.56341904  0.50967910  0.95871500    -0.82700
O1062       O  0.54245250  0.35998370  0.95499644    -0.78300
O1063       O  0.55689567  0.47709121  0.92668044    -0.90000
O1064       O  0.94064169  0.38061261  0.95339102    -0.75900
O1065       O  0.50457148  0.38590342  0.97171527    -0.85400
O1066       O  0.51323747  0.44263220  0.97392230    -0.85100
O1067       O  0.58629453  0.42581381  0.97409661    -0.71900
O1068       O  0.59395309  0.47849299  0.97610469    -0.84000
Zr1069     Zr  0.54826126  0.43033966  0.05249032     2.26400
Zr1070     Zr  0.54119512  0.37823732  0.99862876     2.06300
Zr1071     Zr  0.55691424  0.48645359  0.00219209     2.10000
Zr1072     Zr  0.96702306  0.39230195  0.99741214     1.78800
O1073       O  0.61046736  0.03936932  0.00525124    -0.92800
O1074       O  0.92207480  0.33461686  0.99580896    -0.40600
O1075       O  0.51167899  0.43894003  0.02666840    -0.77200
O1076       O  0.50385420  0.38579988  0.02463895    -0.95900
O1077       O  0.58483722  0.42166617  0.02740994    -0.89200
O1078       O  0.59311713  0.47835616  0.02899792    -0.92100
C1079       C  0.95350665  0.38644920  0.92973247     1.01700
C1080       C  0.56147898  0.50177596  0.93424718     1.14600
C1081       C  0.54505747  0.36952769  0.93123354     1.05400
O1082       O  0.48628797  0.32225094  0.99705088    -0.94200
O1083       O  0.53612865  0.35561119  0.04177254    -0.90000
O1084       O  0.53648287  0.38525067  0.07371299    -0.83100
C1085       C  0.53413974  0.36164976  0.06608716     1.12000
O1086       O  0.67535299  0.49449753  0.96804986    -0.96200
Zr1087     Zr  0.62881716  0.46912067  0.00349148     1.88900
O1088       O  0.60512806  0.45353268  0.07772123    -0.72900
O1089       O  0.58649951  0.36891121  0.99737138    -0.52100
O1090       O  0.66123205  0.44733433  0.99875162    -0.96800
O1091       O  0.67281929  0.02394400  0.01157111    -0.54000
O1092       O  0.65272069  0.47504909  0.04809250    -0.73400
C1093       C  0.63971816  0.46806165  0.07185141     0.99000
O1094       O  0.00071693  0.40726673  0.08831023    -0.62200
O1095       O  0.00887242  0.49419669  0.00050087    -0.57000
O1096       O  0.55137325  0.47006997  0.07703951    -0.93700
O1097       O  0.55448696  0.50251737  0.04697770    -0.92100
O1098       O  0.92950015  0.40955929  0.99581507    -0.92500
O1099       O  0.92168218  0.36999056  0.03352476    -0.91200
C1100       C  0.55252624  0.49342286  0.07094369     1.17800
H1101       H  0.50017092  0.44752934  0.96280088     0.33800
H1102       H  0.98494196  0.36580781  0.03611983     0.44600
H1103       H  0.60905796  0.49572012  0.04101365     0.38100
H1104       H  0.60081748  0.42299624  0.96259267     0.34600
H1105       H  0.89956578  0.32942799  0.98682642     0.26400
H1106       H  0.60152115  0.37877416  0.01382471     0.32300
H1107       H  0.66060818  0.43959284  0.01663423     0.38300
H1108       H  0.93926441  0.42497895  0.01055774     0.32700
H1109       H  0.49138770  0.47926838  0.01529366     0.31600
H1110       H  0.60321344  0.05115549  0.99682369     0.33300
H1111       H  0.69710792  0.02800297  0.01263721     0.32200
H1112       H  0.93625959  0.38420076  0.04878674     0.36200
H1113       H  0.98879833  0.41726335  0.08727354     0.29000
H1114       H  0.57467813  0.44333434  0.89454559     0.33200
H1115       H  0.66303205  0.00340316  0.95873854     0.36100
H1116       H  0.99121860  0.48100867  0.98581553     0.28700
H1117       H  0.98027404  0.38510381  0.08276736     0.41500
H1118       H  0.00008530  0.31042687  0.99901204     0.31600
H1119       H  0.93276950  0.32861707  0.98283173     0.39200
H1120       H  0.66899227  0.02833690  0.02971779     0.31100
H1121       H  0.57123790  0.34584306  0.00027945     0.31100
H1122       H  0.60795373  0.45147747  0.91228672     0.31400
Zr1123     Zr  0.54650673  0.43636750  0.44694974     2.17500
O1124       O  0.01026554  0.41815601  0.40737457    -0.51000
O1125       O  0.60502127  0.46508957  0.42235524    -0.74200
O1126       O  0.54800541  0.47731834  0.42672869    -0.81000
O1127       O  0.53850371  0.36359219  0.45417973    -0.82700
O1128       O  0.54894153  0.50801640  0.45763186    -0.78300
O1129       O  0.53662560  0.39286496  0.42329946    -0.90000
O1130       O  0.65240658  0.49089450  0.45259879    -0.75900
O1131       O  0.58791634  0.48359781  0.47234424    -0.85400
O1132       O  0.58490944  0.42938040  0.47167991    -0.85100
O1133       O  0.50654854  0.44059956  0.47357552    -0.71900
O1134       O  0.50360324  0.38964209  0.47288325    -0.84000
Zr1135     Zr  0.54355050  0.43374852  0.55171666     2.26400
Zr1136     Zr  0.54872285  0.48729488  0.50037046     2.06300
Zr1137     Zr  0.54261152  0.38367021  0.49861633     2.10000
Zr1138     Zr  0.62573319  0.47635627  0.49718096     1.78800
O1139       O  0.49012669  0.32696747  0.49939778    -0.92800
O1140       O  0.67517338  0.03315444  0.49977844    -0.40600
O1141       O  0.58421385  0.43065051  0.52469245    -0.77200
O1142       O  0.58733584  0.48059578  0.52574734    -0.95900
O1143       O  0.50563366  0.44109031  0.52678595    -0.89200
O1144       O  0.50251744  0.38695683  0.52579971    -0.92100
C1145       C  0.64008205  0.48372931  0.42859928     1.01700
C1146       C  0.53598979  0.36990141  0.43010273     1.14600
C1147       C  0.54869638  0.50036554  0.43349934     1.05400
O1148       O  0.60499723  0.04620838  0.49935844    -0.94200
O1149       O  0.55643145  0.51066785  0.54385156    -0.90000
O1150       O  0.55001507  0.47671527  0.57410942    -0.83100
C1151       C  0.55506046  0.50197871  0.56780489     1.12000
O1152       O  0.92336689  0.36890496  0.46142867    -0.96200
Zr1153     Zr  0.96647824  0.39288519  0.49905359     1.88900
O1154       O  0.48286324  0.40416480  0.57389841    -0.72900
O1155       O  0.99891819  0.49014297  0.50209477    -0.52100
O1156       O  0.92507903  0.40619200  0.49542870    -0.96800
O1157       O  0.92487948  0.33515819  0.49838137    -0.54000
O1158       O  0.93540156  0.37814757  0.54166142    -0.73400
C1159       C  0.94735721  0.38523637  0.56561045     0.99000
O1160       O  0.58278375  0.45166654  0.59134169    -0.62200
O1161       O  0.59006903  0.37674770  0.49812282    -0.57000
O1162       O  0.54552324  0.39484550  0.57359324    -0.93700
O1163       O  0.54791706  0.36647682  0.54186272    -0.92100
O1164       O  0.66699296  0.46273036  0.49642946    -0.92500
O1165       O  0.67028715  0.49769110  0.53391179    -0.91200
C1166       C  0.54776368  0.37346780  0.56624056     1.17800
H1167       H  0.59911106  0.42628037  0.46011463     0.33800
H1168       H  0.60403108  0.49889361  0.53740490     0.44600
H1169       H  0.48678978  0.36827794  0.53702430     0.38100
H1170       H  0.99291648  0.44231553  0.46174791     0.34600
H1171       H  0.66885118  0.03995488  0.48417246     0.26400
H1172       H  0.51191489  0.51404007  0.49916509     0.32300
H1173       H  0.92971921  0.41824252  0.51180708     0.38300
H1174       H  0.66557293  0.45560608  0.47805974     0.32700
H1175       H  0.57799021  0.35642458  0.48872489     0.31600
H1176       H  0.50216724  0.31704720  0.49891798     0.33300
H1177       H  0.92583477  0.32887466  0.51654587     0.32200
H1178       H  0.65253172  0.98147536  0.55319051     0.36200
H1179       H  0.60315310  0.47471354  0.58888246     0.29000
H1180       H  0.52136675  0.43042958  0.39358803     0.33200
H1181       H  0.93929601  0.38137348  0.44592353     0.36100
H1182       H  0.60977073  0.39310832  0.48579632     0.28700
H1183       H  0.56718288  0.44992111  0.60598631     0.41500
H1184       H  0.62302946  0.04997554  0.51293433     0.31600
H1185       H  0.66905273  0.04039189  0.51520046     0.39200
H1186       H  0.93821316  0.33004967  0.48732065     0.31100
H1187       H  0.98362515  0.47745673  0.51773256     0.31100
H1188       H  0.99227078  0.42213089  0.41040882     0.31400
C1189       C  0.81589234  0.06088611  0.22853721     0.80600
N1190       N  0.79785271  0.05579808  0.25181460    -0.77700
C1191       C  0.81718521  0.06740876  0.27495887     0.83000
N1192       N  0.85513940  0.08446681  0.27476616    -0.77700
C1193       C  0.87348864  0.08963945  0.25169552     0.83100
N1194       N  0.85391705  0.07803528  0.22851283    -0.79400
C1195       C  0.52199858  0.09223793  0.22608526     0.80600
N1196       N  0.53340616  0.08824203  0.24943219    -0.77700
C1197       C  0.52526552  0.09514348  0.27286488     0.83000
N1198       N  0.50577168  0.10614851  0.27272139    -0.77700
C1199       C  0.99469668  0.11117631  0.25049985     0.83100
N1200       N  0.50210016  0.10288765  0.22629646    -0.79400
C1201       C  0.97289712  0.12219979  0.25103894     0.80600
N1202       N  0.93454063  0.10106094  0.25086861    -0.77700
C1203       C  0.91461794  0.11166705  0.25147852     0.83000
N1204       N  0.93298257  0.14320923  0.25217074    -0.77700
C1205       C  0.97115591  0.16423913  0.25218228     0.83100
N1206       N  0.99114338  0.15376238  0.25156126    -0.79400
C1207       C  0.51613017  0.24350532  0.22543930     0.80600
N1208       N  0.49921514  0.21228670  0.22720409    -0.77700
C1209       C  0.49210941  0.19845032  0.25126241     0.83000
N1210       N  0.50155874  0.21582816  0.27380168    -0.77700
C1211       C  0.51856983  0.24725373  0.27244154     0.83100
N1212       N  0.52552463  0.26060573  0.24817598    -0.79400
C1213       C  0.51218664  0.32370885  0.36572968    -0.14000
C1214       C  0.53479000  0.31479430  0.36788371     0.16400
C1215       C  0.55731733  0.32381794  0.39073980     0.02700
C1216       C  0.55594798  0.34059864  0.41112035    -0.12500
C1217       C  0.53384673  0.35003178  0.40876170    -0.03600
C1218       C  0.51198413  0.34159098  0.38555986     0.01900
C1219       C  0.53607830  0.29846069  0.34482999     0.08800
N1220       N  0.58424143  0.31883634  0.39263988     0.65100
H1221       H  0.57387830  0.34774241  0.42835004     0.18000
N1222       N  0.00175225  0.36110970  0.37793555     0.75600
H1223       H  0.00518203  0.32624837  0.34463484     0.09500
C1224       C  0.51962458  0.26621049  0.34538856     0.03200
C1225       C  0.51588473  0.25062708  0.32185762    -0.05500
C1226       C  0.52730779  0.26619903  0.29719927    -0.23900
C1227       C  0.54497016  0.29901528  0.29699198     0.12500
C1228       C  0.54931498  0.31457424  0.32064231    -0.13000
N1229       N  0.98936127  0.24586865  0.36697797     0.64200
H1230       H  0.98815827  0.22261717  0.32116911     0.12000
N1231       N  0.55734308  0.31696649  0.27305345     0.60800
H1232       H  0.56169397  0.33931469  0.31990999     0.08200
O1233       O  0.96664580  0.34401081  0.38158991    -0.40700
O1234       O  0.01768982  0.38485079  0.36290433    -0.39800
O1235       O  0.61781700  0.34093662  0.38574176    -0.39800
O1236       O  0.57780254  0.29786530  0.40819626    -0.37500
O1237       O  0.59218052  0.33605441  0.26800901    -0.38400
O1238       O  0.53593395  0.32084674  0.26189221    -0.34600
O1239       O  0.95659335  0.23712898  0.36931171    -0.36000
O1240       O  0.52086442  0.24070390  0.38146272    -0.40300
C1241       C  0.68827823  0.49909964  0.36174886    -0.14000
C1242       C  0.73033579  0.02609688  0.37113758     0.16400
C1243       C  0.73827239  0.04074781  0.39613124     0.02700
C1244       C  0.71059956  0.02580405  0.41592509    -0.12500
C1245       C  0.66845173  0.49825921  0.40685642    -0.03600
C1246       C  0.66021106  0.48451718  0.38124574     0.01900
C1247       C  0.75653042  0.04155608  0.34840467     0.08800
N1248       N  0.77309819  0.07160792  0.40127143     0.65100
H1249       H  0.71689455  0.03771372  0.43483980     0.18000
N1250       N  0.62392100  0.45544008  0.37470064     0.75600
H1251       H  0.68160067  0.48823585  0.34228633     0.09500
C1252       C  0.78917600  0.04436377  0.34657838     0.03200
C1253       C  0.80926468  0.05407896  0.32272824    -0.05500
C1254       C  0.79703852  0.06049252  0.30030382    -0.23900
C1255       C  0.76503883  0.05873433  0.30247179     0.12500
C1256       C  0.74535266  0.04949232  0.32643568    -0.13000
N1257       N  0.80097104  0.03543868  0.36800773     0.64200
H1258       H  0.83356240  0.05506881  0.32139338     0.12000
N1259       N  0.75227536  0.06657018  0.28080708     0.60800
H1260       H  0.72029156  0.04743996  0.32765399     0.08200
O1261       O  0.61925545  0.43005495  0.37453669    -0.40700
O1262       O  0.60046176  0.45631893  0.36272655    -0.39800
O1263       O  0.77434607  0.09524811  0.39895412    -0.39800
O1264       O  0.79764282  0.07419213  0.41534899    -0.37500
O1265       O  0.72476279  0.04448489  0.26704908    -0.38400
O1266       O  0.76056614  0.09345204  0.28053277    -0.34600
O1267       O  0.77374087  0.49939187  0.36438246    -0.36000
O1268       O  0.81836719  0.54674509  0.37946821    -0.40300
C1269       C  0.54279410  0.05683471  0.39401980    -0.14000
C1270       C  0.54162848  0.04665797  0.36822307     0.16400
C1271       C  0.54575697  0.52360131  0.36362952     0.02700
C1272       C  0.54777396  0.50902092  0.38531425    -0.12500
C1273       C  0.54852991  0.51842641  0.41149206    -0.03600
C1274       C  0.54738168  0.04385505  0.41604253     0.01900
C1275       C  0.53835416  0.06149036  0.34517124     0.08800
N1276       N  0.54460978  0.51253481  0.33761697     0.65100
H1277       H  0.54844378  0.48988799  0.38134537     0.18000
N1278       N  0.54755633  0.05482159  0.44183779     0.75600
H1279       H  0.54028424  0.07506940  0.39708307     0.09500
C1280       C  0.00773428  0.06155721  0.34207022     0.03200
C1281       C  0.00587110  0.07491189  0.31915260    -0.05500
C1282       C  0.53210068  0.08619813  0.29839616    -0.23900
C1283       C  0.56466273  0.08942858  0.30325266     0.12500
C1284       C  0.56757806  0.07732743  0.32655755    -0.13000
N1285       N  0.97888852  0.04886616  0.36160382     0.64200
H1286       H  0.98244886  0.07499623  0.31698440     0.12000
N1287       N  0.59515650  0.10487788  0.28489318     0.60800
H1288       H  0.59271802  0.07989927  0.32997140     0.08200
O1289       O  0.51651698  0.04404970  0.45231802    -0.40700
O1290       O  0.57742512  0.08071833  0.45020947    -0.39800
O1291       O  0.57488227  0.52119225  0.32727492    -0.39800
O1292       O  0.51359288  0.48814832  0.32870302    -0.37500
O1293       O  0.62132444  0.13437117  0.28710706    -0.38400
O1294       O  0.60165164  0.08849943  0.27291198    -0.34600
O1295       O  0.97942793  0.06766023  0.37662920    -0.36000
O1296       O  0.95135526  0.52008146  0.35933510    -0.40300
C1297       C  0.51331326  0.31992932  0.13183696    -0.14000
C1298       C  0.53203782  0.30756382  0.12888162     0.16400
C1299       C  0.54782400  0.30993543  0.10405038     0.02700
C1300       C  0.54695316  0.32661716  0.08340251    -0.12500
C1301       C  0.53015603  0.34072325  0.08697885    -0.03600
C1302       C  0.51215618  0.33632146  0.11133299     0.01900
C1303       C  0.53345092  0.29189507  0.15216654     0.08800
N1304       N  0.56557256  0.29630393  0.09958483     0.65100
H1305       H  0.56061628  0.32943254  0.06480709     0.18000
N1306       N  0.98976020  0.34783766  0.11582016     0.75600
H1307       H  0.99460414  0.31504769  0.15028204     0.09500
C1308       C  0.54869907  0.30834455  0.17639519     0.03200
C1309       C  0.54391304  0.29208683  0.19933465    -0.05500
C1310       C  0.52332052  0.25916639  0.19930344    -0.23900
C1311       C  0.50924595  0.24273576  0.17469242     0.12500
C1312       C  0.51452670  0.25928506  0.15146566    -0.13000
N1313       N  0.56821098  0.34158020  0.17837689     0.64200
H1314       H  0.55589518  0.30564519  0.21749703     0.12000
N1315       N  0.48856881  0.20931639  0.17278235     0.60800
H1316       H  0.50216768  0.24628915  0.13304089     0.08200
O1317       O  0.00365351  0.37143250  0.13083831    -0.40700
O1318       O  0.95482070  0.32956743  0.11102980    -0.39800
O1319       O  0.54851873  0.27125057  0.08595995    -0.39800
O1320       O  0.60076661  0.31325349  0.10273571    -0.37500
O1321       O  0.45313618  0.19121298  0.17050138    -0.38400
O1322       O  0.50573831  0.19921794  0.16604821    -0.34600
O1323       O  0.04253691  0.34810288  0.19021199    -0.36000
O1324       O  0.60377729  0.36051332  0.17784066    -0.40300
C1325       C  0.56423931  0.07767777  0.16972832    -0.14000
C1326       C  0.53198395  0.05473847  0.15481717     0.16400
C1327       C  0.99668925  0.04811000  0.16302835     0.02700
C1328       C  0.99524716  0.06174132  0.18602556    -0.12500
C1329       C  0.52664997  0.08112697  0.20095339    -0.03600
C1330       C  0.56186201  0.09078824  0.19265555     0.01900
C1331       C  0.53575338  0.03863364  0.13306411     0.08800
N1332       N  0.96197149  0.02238775  0.15088972     0.65100
H1333       H  0.96806741  0.05359540  0.19305515     0.18000
N1334       N  0.59564980  0.11439461  0.20684899     0.75600
H1335       H  0.59144404  0.08498915  0.16379244     0.09500
C1336       C  0.52976225  0.04133265  0.10619370     0.03200
C1337       C  0.53532292  0.02649252  0.08660016    -0.05500
C1338       C  0.54965427  0.51009650  0.09291720    -0.23900
C1339       C  0.55606265  0.50733738  0.11985333     0.12500
C1340       C  0.04372964  0.51921472  0.13781710    -0.13000
N1341       N  0.51926911  0.05982562  0.09817481     0.64200
H1342       H  0.53004866  0.02861550  0.06613309     0.12000
N1343       N  0.06091526  0.48686363  0.12620854     0.60800
H1344       H  0.04757560  0.51610278  0.15839238     0.08200
O1345       O  0.61035314  0.10592226  0.22114278    -0.40700
O1346       O  0.61586262  0.14272568  0.19903195    -0.39800
O1347       O  0.94261397  0.49428552  0.15661857    -0.39800
O1348       O  0.94587469  0.53058928  0.13559882    -0.37500
O1349       O  0.09522646  0.50119657  0.13132284    -0.38400
O1350       O  0.03631238  0.45919671  0.13500342    -0.34600
O1351       O  0.54487962  0.08810122  0.09111094    -0.36000
O1352       O  0.48608186  0.04569218  0.08999509    -0.40300
C1353       C  0.77789772  0.02870572  0.15880537    -0.14000
C1354       C  0.74671286  0.02788047  0.15862678     0.16400
C1355       C  0.74008259  0.03950675  0.18076813     0.02700
C1356       C  0.76371208  0.05072618  0.20275943    -0.12500
C1357       C  0.79410631  0.05056353  0.20355025    -0.03600
C1358       C  0.80175838  0.04006623  0.18097973     0.01900
C1359       C  0.71934979  0.01209112  0.13650206     0.08800
N1360       N  0.70934344  0.04001063  0.18140403     0.65100
H1361       H  0.75804047  0.05963556  0.21945594     0.18000
N1362       N  0.83213474  0.03910603  0.18061783     0.75600
H1363       H  0.78290499  0.01933230  0.14207599     0.09500
C1364       C  0.72996629  0.02212510  0.11005437     0.03200
C1365       C  0.70281520  0.00672157  0.08998271    -0.05500
C1366       C  0.66689263  0.47853366  0.09384432    -0.23900
C1367       C  0.65538334  0.46600082  0.11979848     0.12500
C1368       C  0.68196927  0.98564575  0.14206993    -0.13000
N1369       N  0.76786824  0.04854223  0.10325825     0.64200
H1370       H  0.71147938  0.01566415  0.06994207     0.12000
N1371       N  0.61716099  0.43944417  0.12580182     0.60800
H1372       H  0.67270610  0.46958657  0.16005189     0.08200
O1373       O  0.86190295  0.06037813  0.16827104    -0.40700
O1374       O  0.82538220  0.01333602  0.18571537    -0.39800
O1375       O  0.68100715  0.02003596  0.19554910    -0.39800
O1376       O  0.71514671  0.06499409  0.17463520    -0.37500
O1377       O  0.60771134  0.41214077  0.12637191    -0.38400
O1378       O  0.59666417  0.44408224  0.13736975    -0.34600
O1379       O  0.78804400  0.04362193  0.09157189    -0.36000
O1380       O  0.77724968  0.07580234  0.10235454    -0.40300
C1381       C  0.85776937  0.33544234  0.60755134    -0.14000
C1382       C  0.86982497  0.35457270  0.63021650     0.16400
C1383       C  0.90667490  0.38393468  0.63095527     0.02700
C1384       C  0.93099395  0.39317734  0.60964578    -0.12500
C1385       C  0.91952900  0.37382903  0.58717389    -0.03600
C1386       C  0.88213882  0.34480034  0.58601682     0.01900
C1387       C  0.84605380  0.34169205  0.65428941     0.08800
N1388       N  0.91999423  0.40472986  0.65326492     0.65100
H1389       H  0.95918487  0.41584453  0.61074774     0.18000
N1390       N  0.86902811  0.32367334  0.56397608     0.75600
H1391       H  0.82984760  0.31248571  0.60702610     0.09500
C1392       C  0.80954839  0.33247819  0.65508589     0.03200
C1393       C  0.78870542  0.32053921  0.67860348    -0.05500
C1394       C  0.80341455  0.31725547  0.70140596    -0.23900
C1395       C  0.83913304  0.32485428  0.70008253     0.12500
C1396       C  0.85999112  0.33705377  0.67669872    -0.13000
N1397       N  0.79350125  0.33577516  0.63254422     0.64200
H1398       H  0.76130810  0.31469893  0.67919827     0.12000
N1399       N  0.85397830  0.31893178  0.72173707     0.60800
H1400       H  0.88712212  0.34241746  0.67587829     0.08200
O1401       O  0.84895646  0.32318309  0.54653873    -0.40700
O1402       O  0.86863164  0.30042851  0.56573905    -0.39800
O1403       O  0.94175330  0.40613220  0.66968834    -0.39800
O1404       O  0.91889615  0.42720573  0.65237656    -0.37500
O1405       O  0.84513891  0.29192722  0.72373323    -0.38400
O1406       O  0.88293785  0.34207838  0.73370999    -0.34600
O1407       O  0.76816894  0.31131521  0.61949935    -0.36000
O1408       O  0.79619875  0.36016864  0.63067686    -0.40300
C1409       C  0.86594204  0.35359796  0.88905283    -0.14000
C1410       C  0.87513704  0.34721455  0.86501987     0.16400
C1411       C  0.91026014  0.35417051  0.86220426     0.02700
C1412       C  0.93519100  0.36670401  0.88359314    -0.12500
C1413       C  0.92620802  0.37330694  0.90772124    -0.03600
C1414       C  0.89133747  0.36705842  0.91023740     0.01900
C1415       C  0.85032473  0.33802986  0.84208694     0.08800
N1416       N  0.92143488  0.34936761  0.83759288     0.65100
H1417       H  0.96185256  0.37147728  0.88118196     0.18000
N1418       N  0.88258826  0.37669045  0.93317533     0.75600
H1419       H  0.83974479  0.34971120  0.89088573     0.09500
C1420       C  0.81339021  0.30886727  0.84087599     0.03200
C1421       C  0.79081686  0.30175809  0.81877815    -0.05500
C1422       C  0.80452810  0.32340083  0.79788424    -0.23900
C1423       C  0.84074245  0.35333764  0.79996722     0.12500
C1424       C  0.86326165  0.36027479  0.82193930    -0.13000
N1425       N  0.79893454  0.28578065  0.86133561     0.64200
H1426       H  0.76314539  0.27864519  0.81742899     0.12000
N1427       N  0.85467710  0.37736434  0.78044947     0.60800
H1428       H  0.89094222  0.38337577  0.82344698     0.08200
O1429       O  0.85969523  0.35618774  0.95002833    -0.40700
O1430       O  0.89004139  0.40325481  0.93314877    -0.39800
O1431       O  0.94426888  0.37293096  0.82294781    -0.39800
O1432       O  0.91685850  0.32424414  0.83412153    -0.37500
O1433       O  0.84794502  0.39632027  0.78311938    -0.38400
O1434       O  0.88160053  0.38512017  0.76577131    -0.34600
O1435       O  0.77526229  0.28179672  0.87748947    -0.36000
O1436       O  0.80193607  0.26447141  0.85895801    -0.40300
C1437       C  0.58405078  0.33531783  0.67426074    -0.14000
C1438       C  0.56402809  0.31382613  0.65329070     0.16400
C1439       C  0.55284761  0.28317398  0.65535397     0.02700
C1440       C  0.56096375  0.27431856  0.67849558    -0.12500
C1441       C  0.57977789  0.29549144  0.69981235    -0.03600
C1442       C  0.59183281  0.32643434  0.69744521     0.01900
C1443       C  0.55534492  0.32442381  0.62975135     0.08800
N1444       N  0.53190192  0.26036203  0.63467935     0.65100
H1445       H  0.55136014  0.25042996  0.68017607     0.18000
N1446       N  0.61301600  0.34945201  0.71801147     0.75600
H1447       H  0.59357304  0.35918873  0.67264002     0.09500
C1448       C  0.53208849  0.33276937  0.63213141     0.03200
C1449       C  0.53003997  0.34871056  0.61136039    -0.05500
C1450       C  0.54990944  0.35559540  0.58750332    -0.23900
C1451       C  0.57162923  0.34550320  0.58478957     0.12500
C1452       C  0.57443325  0.33042601  0.60594071    -0.13000
N1453       N  0.51027401  0.32488028  0.65562406     0.64200
H1454       H  0.51245509  0.35539695  0.61378156     0.12000
N1455       N  0.59271577  0.35174967  0.56131503     0.60800
H1456       H  0.59276123  0.32441901  0.60408643     0.08200
O1457       O  0.59652012  0.35531881  0.73348718    -0.40700
O1458       O  0.64848964  0.36916104  0.71619817    -0.39800
O1459       O  0.54875051  0.25511141  0.61893407    -0.39800
O1460       O  0.49645406  0.24032372  0.63647555    -0.37500
O1461       O  0.62727631  0.37567625  0.56078373    -0.38400
O1462       O  0.58037049  0.32931741  0.54525245    -0.34600
O1463       O  0.52172614  0.34580394  0.67310308    -0.36000
O1464       O  0.48401996  0.29614290  0.66112849    -0.40300
C1465       C  0.52942084  0.29268273  0.82289213    -0.14000
C1466       C  0.55913203  0.31174207  0.84096270     0.16400
C1467       C  0.59297654  0.31654601  0.83715142     0.02700
C1468       C  0.59705271  0.30369678  0.81487017    -0.12500
C1469       C  0.56812371  0.28624434  0.79607973    -0.03600
C1470       C  0.53371093  0.28012297  0.80047188     0.01900
C1471       C  0.55381917  0.32548987  0.86399197     0.08800
N1472       N  0.62407739  0.33539681  0.85506330     0.65100
H1473       H  0.62368157  0.30861683  0.81164571     0.18000
N1474       N  0.50242128  0.26031246  0.78291316     0.75600
H1475       H  0.50262839  0.28738593  0.82624181     0.09500
C1476       C  0.54270510  0.34419883  0.86085380     0.03200
C1477       C  0.53920604  0.35746532  0.88307032    -0.05500
C1478       C  0.54607455  0.35232580  0.90879814    -0.23900
C1479       C  0.55514353  0.33207279  0.91195461     0.12500
C1480       C  0.55894305  0.31902752  0.88963414    -0.13000
N1481       N  0.53544699  0.35053555  0.83528344     0.64200
H1482       H  0.53129473  0.37218557  0.87998170     0.12000
N1483       N  0.56135287  0.32480306  0.93744816     0.60800
H1484       H  0.56579574  0.30354162  0.89241853     0.08200
O1485       O  0.99354864  0.27202582  0.76889595    -0.40700
O1486       O  0.47665797  0.23171956  0.78910856    -0.39800
O1487       O  0.63025815  0.32172942  0.87143416    -0.39800
O1488       O  0.65036214  0.36411980  0.84959408    -0.37700
O1489       O  0.53461957  0.29927262  0.94850466    -0.38400
O1490       O  0.59473972  0.33846613  0.94488518    -0.34600
O1491       O  0.50168995  0.33568095  0.82806988    -0.36000
O1492       O  0.56119168  0.37620089  0.82390622    -0.40300
C1493       C  0.57733163  0.10036559  0.65787557    -0.14000
C1494       C  0.57919286  0.07584974  0.66020719     0.16400
C1495       C  0.58778875  0.07011019  0.68505822     0.02700
C1496       C  0.59161256  0.08729587  0.70729483    -0.12500
C1497       C  0.58815091  0.11104908  0.70540743    -0.03600
C1498       C  0.58218854  0.11824008  0.68002003     0.01900
C1499       C  0.57281761  0.05716799  0.63630016     0.08800
N1500       N  0.59480688  0.04823485  0.68792136     0.65100
H1501       H  0.59800332  0.08223378  0.72617777     0.18000
N1502       N  0.06696532  0.13692125  0.67540394     0.75600
H1503       H  0.06110606  0.10103821  0.63718639     0.09500
C1504       C  0.54069727  0.02497269  0.63372555     0.03200
C1505       C  0.53378114  0.50633029  0.61144270    -0.05500
C1506       C  0.56220405  0.02277389  0.59027247    -0.23900
C1507       C  0.59330565  0.05542317  0.59217215     0.12500
C1508       C  0.59849487  0.07222684  0.61522042    -0.13000
N1509       N  0.00989420  0.50695234  0.65255588     0.64200
H1510       H  0.01157864  0.48018624  0.60996696     0.12000
N1511       N  0.62081663  0.07151659  0.57157575     0.60800
H1512       H  0.62293064  0.09710423  0.61681106     0.08200
O1513       O  0.03357162  0.12706868  0.67494076    -0.40700
O1514       O  0.09298052  0.16379882  0.66581561    -0.39800
O1515       O  0.62845611  0.05869320  0.68716021    -0.39800
O1516       O  0.57025382  0.02196006  0.69896941    -0.37500
O1517       O  0.62090219  0.08988889  0.55640706    -0.38400
O1518       O  0.64977321  0.07359452  0.57282730    -0.34600
O1519       O  0.98295020  0.50746537  0.64992515    -0.36000
O1520       O  0.00674824  0.98649628  0.66573911    -0.40300
C1521       C  0.57207988  0.09772270  0.84927126    -0.14000
C1522       C  0.58256956  0.07854901  0.84786505     0.16400
C1523       C  0.59625308  0.07655173  0.82362399     0.02700
C1524       C  0.59839800  0.09282574  0.80138239    -0.12500
C1525       C  0.58718723  0.11149370  0.80238254    -0.03600
C1526       C  0.57421863  0.11413602  0.82683366     0.01900
C1527       C  0.57527436  0.05805146  0.87069216     0.08800
N1528       N  0.60840515  0.05820143  0.82121767     0.65100
H1529       H  0.60912439  0.09080876  0.78307929     0.18000
N1530       N  0.56086945  0.13159405  0.82894947     0.75600
H1531       H  0.56077207  0.09897467  0.86761059     0.09500
C1532       C  0.59368646  0.07047415  0.89538667     0.03200
C1533       C  0.58613868  0.04992261  0.91598672    -0.05500
C1534       C  0.56077310  0.01689774  0.91247975    -0.23900
C1535       C  0.54671756  0.51024605  0.88836372     0.12500
C1536       C  0.54873448  0.02507110  0.86754662    -0.13000
N1537       N  0.62161257  0.10382070  0.89951313     0.64200
H1538       H  0.60141104  0.05995724  0.93451707     0.12000
N1539       N  0.52039754  0.47690765  0.88335066     0.60800
H1540       H  0.53350548  0.01515821  0.84898570     0.08200
O1541       O  0.58114326  0.15813803  0.84053107    -0.40700
O1542       O  0.52607860  0.11717119  0.82611966    -0.39800
O1543       O  0.58680696  0.03125867  0.81035027    -0.39800
O1544       O  0.64312454  0.07196397  0.82311116    -0.37500
O1545       O  0.48564211  0.46246322  0.88635600    -0.38400
O1546       O  0.02133023  0.45651714  0.86828053    -0.34600
O1547       O  0.61370756  0.11785256  0.91384146    -0.36000
O1548       O  0.65577863  0.11682923  0.89542375    -0.40300
C1549       C  0.58936051  0.62892174  0.73009624     0.80600
N1550       N  0.60142123  0.65898022  0.72970219    -0.77700
C1551       C  0.60768824  0.67469979  0.75281383     0.83000
N1552       N  0.60298965  0.66064790  0.77653457    -0.77700
C1553       C  0.59091765  0.63057926  0.77720574     0.83100
N1554       N  0.58445020  0.61523350  0.75393859    -0.79400
C1555       C  0.58400508  0.78791935  0.72785554     0.80600
N1556       N  0.60150046  0.77504901  0.72698626    -0.77700
C1557       C  0.60503602  0.76334063  0.74942483     0.83000
N1558       N  0.59130910  0.76477385  0.77269394    -0.77700
C1559       C  0.57335407  0.77715654  0.77352666     0.83100
N1560       N  0.57002074  0.78883538  0.75114237    -0.79400
C1561       C  0.62591931  0.75125558  0.74915523     0.80600
N1562       N  0.66431166  0.77197909  0.74862612    -0.77700
C1563       C  0.68389354  0.76107072  0.74981430     0.83000
N1564       N  0.66507448  0.72950332  0.75134771    -0.77700
C1565       C  0.62685491  0.70868407  0.75194619     0.83100
N1566       N  0.60717660  0.71954874  0.75099645    -0.79400
C1567       C  0.78175839  0.80628502  0.72606258     0.80600
N1568       N  0.80125548  0.81874495  0.74904367    -0.77700
C1569       C  0.78329554  0.81341061  0.77224044     0.83000
N1570       N  0.74502165  0.79495954  0.77247698    -0.77700
C1571       C  0.72520167  0.78290806  0.74940711     0.83100
N1572       N  0.74360785  0.78845772  0.72625349    -0.79400
Zr1573     Zr  0.54545895  0.92953422  0.95035935     2.17500
O1574       O  0.58971050  0.95146440  0.91345411    -0.51000
O1575       O  0.48693757  0.90272679  0.92597813    -0.74200
O1576       O  0.54169631  0.88783766  0.92884089    -0.81000
O1577       O  0.55905381  0.00482742  0.95825873    -0.82700
O1578       O  0.53674623  0.85460844  0.95893524    -0.78300
O1579       O  0.55191795  0.97133115  0.92688113    -0.90000
O1580       O  0.93860698  0.88144243  0.95553779    -0.75900
O1581       O  0.50070708  0.88241052  0.97460426    -0.85400
O1582       O  0.50995660  0.93945267  0.97521662    -0.85100
O1583       O  0.58265558  0.92211861  0.97691458    -0.71900
O1584       O  0.59050094  0.97522385  0.97721854    -0.84000
Zr1585     Zr  0.54491653  0.92843049  0.05446130     2.26400
Zr1586     Zr  0.53729172  0.87510281  0.00191853     2.06300
Zr1587     Zr  0.55399266  0.98396551  0.00277580     2.10000
Zr1588     Zr  0.96602584  0.89260482  0.99947512     1.78800
O1589       O  0.60919073  0.54311717  0.00520406    -0.92800
O1590       O  0.92648043  0.83509252  0.99679210    -0.40600
O1591       O  0.50879874  0.93701581  0.02791372    -0.77200
O1592       O  0.50004737  0.88335601  0.02720097    -0.95900
O1593       O  0.58141623  0.91944161  0.02972994    -0.89200
O1594       O  0.58953387  0.97599043  0.03038412    -0.92100
C1595       C  0.95133822  0.88718944  0.93180126     1.01700
C1596       C  0.55669338  0.99625313  0.93393613     1.14600
C1597       C  0.53891833  0.86362266  0.93504675     1.05400
O1598       O  0.48307839  0.81887786  0.00083001    -0.94200
O1599       O  0.53139613  0.85299689  0.04531446    -0.90000
O1600       O  0.53569844  0.88494838  0.07682770    -0.83100
C1601       C  0.53165362  0.86045237  0.06956715     1.12000
O1602       O  0.66929914  0.99146409  0.96828393    -0.96200
Zr1603     Zr  0.62538185  0.96669375  0.00535510     1.88900
O1604       O  0.60228710  0.95350320  0.07980086    -0.72900
O1605       O  0.58376424  0.86707480  0.00368200    -0.52100
O1606       O  0.66402779  0.95062348  0.00190890    -0.96800
O1607       O  0.67944274  0.52600652  0.00868291    -0.54000
O1608       O  0.64946142  0.97367015  0.04997153    -0.73400
C1609       C  0.63689568  0.96813830  0.07381026     0.99000
O1610       O  0.00410034  0.91044382  0.09149379    -0.62200
O1611       O  0.00496517  0.99234543  0.00135451    -0.57000
O1612       O  0.54888279  0.96875158  0.07823477    -0.93700
O1613       O  0.55058935  0.99984165  0.04735522    -0.92100
O1614       O  0.92105059  0.90223261  0.99769762    -0.92500
O1615       O  0.92364046  0.87420027  0.03712199    -0.91200
C1616       C  0.54941639  0.99161208  0.07153398     1.17800
H1617       H  0.49685192  0.94409187  0.96366448     0.33800
H1618       H  0.98542311  0.86774459  0.03919340     0.44600
H1619       H  0.60534311  0.99351971  0.04221438     0.38100
H1620       H  0.59708655  0.91894905  0.96564711     0.34600
H1621       H  0.91851213  0.82747655  0.01522481     0.26400
H1622       H  0.56885138  0.84388156  0.00184792     0.32300
H1623       H  0.65062036  0.93111244  0.01267836     0.38300
H1624       H  0.93294887  0.92095098  0.98610176     0.32700
H1625       H  0.52861933  0.01978169  0.99797025     0.31600
H1626       H  0.59716119  0.55303723  0.00450386     0.33300
H1627       H  0.70101228  0.52803499  0.01576936     0.32200
H1628       H  0.93938136  0.87862023  0.05275620     0.36200
H1629       H  0.02018083  0.92276688  0.10702472     0.29000
H1630       H  0.57462845  0.93799490  0.89796471     0.33200
H1631       H  0.66032402  0.48840513  0.95161956     0.36100
H1632       H  0.98631471  0.97734898  0.01486220     0.28700
H1633       H  0.98822682  0.91670837  0.08904180     0.41500
H1634       H  0.99519261  0.81129528  0.99895912     0.31600
H1635       H  0.90321356  0.82818426  0.98770773     0.39200
H1636       H  0.67166750  0.53250439  0.02360247     0.31100
H1637       H  0.59809138  0.87596810  0.98691804     0.31100
H1638       H  0.60655392  0.94648641  0.91747107     0.31400
Zr1639     Zr  0.55127990  0.93877170  0.44770031     2.17500
O1640       O  0.00953701  0.91608339  0.40796630    -0.51000
O1641       O  0.61099731  0.96649388  0.42500288    -0.74200
O1642       O  0.55304548  0.98025633  0.42767033    -0.81000
O1643       O  0.53878632  0.86355005  0.45500929    -0.82700
O1644       O  0.55318792  0.01067971  0.45839103    -0.78300
O1645       O  0.54054063  0.89475849  0.42413203    -0.90000
O1646       O  0.65684727  0.98908298  0.45638800    -0.75900
O1647       O  0.59269068  0.98515516  0.47405398    -0.85400
O1648       O  0.58695894  0.92953090  0.47348380    -0.85100
O1649       O  0.51089413  0.94338143  0.47323563    -0.71900
O1650       O  0.50625112  0.89168892  0.47269270    -0.84000
Zr1651     Zr  0.54273791  0.93372777  0.55190514     2.26400
Zr1652     Zr  0.55285582  0.98939397  0.50070069     2.06300
Zr1653     Zr  0.54244879  0.88345642  0.49947214     2.10000
Zr1654     Zr  0.62768435  0.97554897  0.50001278     1.78800
O1655       O  0.48797136  0.82723493  0.49936083    -0.92800
O1656       O  0.66801828  0.53408004  0.49777567    -0.40600
O1657       O  0.58361610  0.92958017  0.52645408    -0.77200
O1658       O  0.58907138  0.98089178  0.52711081    -0.95900
O1659       O  0.50726933  0.94289330  0.52607685    -0.89200
O1660       O  0.50212033  0.88749439  0.52538180    -0.92100
C1661       C  0.64557487  0.98307030  0.43215528     1.01700
C1662       C  0.53776657  0.87067770  0.43087490     1.14600
C1663       C  0.55293170  0.00296814  0.43431060     1.05400
O1664       O  0.60016099  0.54430014  0.50058058    -0.94200
O1665       O  0.56088024  0.01255483  0.54418523    -0.90000
O1666       O  0.54957520  0.97651452  0.57431746    -0.83100
C1667       C  0.55732471  0.00283768  0.56804122     1.12000
O1668       O  0.92490902  0.87708487  0.46348013    -0.96200
Zr1669     Zr  0.96845888  0.89640757  0.50065081     1.88900
O1670       O  0.48092073  0.90353210  0.57261458    -0.72900
O1671       O  0.00989332  0.99828711  0.50239434    -0.52100
O1672       O  0.93269826  0.91538093  0.50198370    -0.96800
O1673       O  0.92167488  0.83881906  0.49845456    -0.54000
O1674       O  0.93898847  0.88062105  0.54374866    -0.73400
C1675       C  0.95116622  0.88669511  0.56763841     0.99000
O1676       O  0.58130696  0.95115418  0.59186414    -0.62200
O1677       O  0.58735880  0.87368107  0.49930140    -0.57000
O1678       O  0.54211017  0.89438441  0.57474963    -0.93700
O1679       O  0.54681546  0.86684734  0.54355219    -0.92100
O1680       O  0.66390092  0.95705508  0.50207364    -0.92500
O1681       O  0.66888032  0.99616931  0.53869202    -0.91200
C1682       C  0.54514070  0.87345896  0.56779054     1.17800
H1683       H  0.60117235  0.92608752  0.46242976     0.33800
H1684       H  0.60539069  0.99842062  0.53898913     0.44600
H1685       H  0.48554642  0.86869761  0.53630523     0.38100
H1686       H  0.99641873  0.94496195  0.46261418     0.34600
H1687       H  0.69318566  0.54064322  0.49364713     0.26400
H1688       H  0.51776924  0.01762100  0.50098401     0.32300
H1689       H  0.94096580  0.92808417  0.51847724     0.38300
H1690       H  0.68702616  0.97274125  0.49172846     0.32700
H1691       H  0.57190581  0.85072869  0.49554578     0.31600
H1692       H  0.48106919  0.82164545  0.51825186     0.33300
H1693       H  0.89765428  0.83388279  0.50366611     0.32200
H1694       H  0.65885866  0.50152485  0.54824185     0.36200
H1695       H  0.60214792  0.97410910  0.58940654     0.29000
H1696       H  0.52991146  0.93509795  0.39355698     0.33200
H1697       H  0.94094456  0.88999884  0.44816443     0.36100
H1698       H  0.60262803  0.88417984  0.48309606     0.28700
H1699       H  0.56579487  0.94980012  0.60637318     0.41500
H1700       H  0.61375782  0.54875875  0.48372147     0.31600
H1701       H  0.66118908  0.53992499  0.48178219     0.39200
H1702       H  0.92781234  0.83112346  0.51344075     0.31100
H1703       H  0.02563295  0.02148722  0.50488536     0.31100
H1704       H  0.99145102  0.91993079  0.41112727     0.31400
C1705       C  0.81613263  0.55709762  0.22850398     0.80600
N1706       N  0.79843463  0.55409756  0.25137890    -0.77700
C1707       C  0.81803400  0.56832474  0.27406529     0.83000
N1708       N  0.85611952  0.58597457  0.27391587    -0.77700
C1709       C  0.87429380  0.58921223  0.25120927     0.83100
N1710       N  0.85429419  0.57481655  0.22845229    -0.79400
C1711       C  0.52576384  0.59394771  0.22670792     0.80600
N1712       N  0.53906577  0.59213494  0.25011318    -0.77700
C1713       C  0.53114022  0.59960661  0.27331373     0.83000
N1714       N  0.50986803  0.60894275  0.27284304    -0.77700
C1715       C  0.99486529  0.60937132  0.24928571     0.83100
N1716       N  0.50388174  0.60272945  0.22667547    -0.79400
C1717       C  0.97350196  0.62087450  0.24943078     0.80600
N1718       N  0.93511238  0.60010106  0.24940723    -0.77700
C1719       C  0.91561289  0.61109588  0.25073803     0.83000
N1720       N  0.93454775  0.64277307  0.25192345    -0.77700
C1721       C  0.97280140  0.66350942  0.25167587     0.83100
N1722       N  0.99224682  0.65253100  0.25046840    -0.79400
C1723       C  0.51437589  0.74161936  0.22704975     0.80600
N1724       N  0.49777794  0.71048983  0.22849230    -0.77700
C1725       C  0.49036274  0.69630952  0.25233796     0.83000
N1726       N  0.49917051  0.71318643  0.27503533    -0.77700
C1727       C  0.51605495  0.74456611  0.27402553     0.83100
N1728       N  0.52341842  0.75849069  0.24993118    -0.79400
C1729       C  0.51419387  0.82657488  0.36513204    -0.14000
C1730       C  0.52986752  0.81168008  0.36893130     0.16400
C1731       C  0.54762324  0.81586526  0.39329696     0.02700
C1732       C  0.54934979  0.83473861  0.41325195    -0.12500
C1733       C  0.53391270  0.84995159  0.40942663    -0.03600
C1734       C  0.51591293  0.84545533  0.38498041     0.01900
C1735       C  0.52935347  0.79397123  0.34626364     0.08800
N1736       N  0.56535173  0.80223954  0.39780339     0.65100
H1737       H  0.56372404  0.83811541  0.43164530     0.18000
N1738       N  0.98851034  0.85007867  0.38258711     0.75600
H1739       H  0.99361845  0.81705622  0.34779936     0.09500
C1740       C  0.50341093  0.76064395  0.34464457     0.03200
C1741       C  0.50073070  0.74528262  0.32132460    -0.05500
C1742       C  0.52297404  0.76240295  0.29898340    -0.23900
C1743       C  0.54951648  0.79592659  0.30089291     0.12500
C1744       C  0.55237611  0.81118656  0.32437205    -0.13000
N1745       N  0.98729677  0.74277918  0.36611536     0.64200
H1746       H  0.98958506  0.72120134  0.32055495     0.12000
N1747       N  0.57413926  0.81504795  0.27948292     0.60800
H1748       H  0.57225121  0.83685063  0.32532550     0.08200
O1749       O  0.95355583  0.83044778  0.38711941    -0.40700
O1750       O  0.00111967  0.87384025  0.36828275    -0.39800
O1751       O  0.60051451  0.81916914  0.39454710    -0.39800
O1752       O  0.54862035  0.77760429  0.41178940    -0.37500
O1753       O  0.60701527  0.82374847  0.27936376    -0.38400
O1754       O  0.56746969  0.83041445  0.26597424    -0.34600
O1755       O  0.95245722  0.72889981  0.36598793    -0.36000
O1756       O  0.48417196  0.72732752  0.38065329    -0.40300
C1757       C  0.69486040  0.99666610  0.36657999    -0.14000
C1758       C  0.72462419  0.52738841  0.36692902     0.16400
C1759       C  0.73280013  0.54150243  0.39217575     0.02700
C1760       C  0.70494446  0.52678611  0.41185836    -0.12500
C1761       C  0.67458457  0.99674389  0.41112114    -0.03600
C1762       C  0.66696042  0.98200236  0.38608873     0.01900
C1763       C  0.75237747  0.54216697  0.34497231     0.08800
N1764       N  0.76854433  0.57145991  0.39785561     0.65100
H1765       H  0.71181655  0.53821185  0.43106766     0.18000
N1766       N  0.63131545  0.95204369  0.38007159     0.75600
H1767       H  0.68848200  0.98525063  0.34739263     0.09500
C1768       C  0.78274651  0.54170727  0.34402470     0.03200
C1769       C  0.80520673  0.55219485  0.32123266    -0.05500
C1770       C  0.79751975  0.56256987  0.29897558    -0.23900
C1771       C  0.76791442  0.56406554  0.30029021     0.12500
C1772       C  0.74575880  0.55392022  0.32318824    -0.13000
N1773       N  0.78951125  0.52849967  0.36511555     0.64200
H1774       H  0.82743722  0.55045950  0.32037950     0.12000
N1775       N  0.76044362  0.57648460  0.27890203     0.60800
H1776       H  0.72262592  0.55454303  0.32375482     0.08200
O1777       O  0.62847190  0.92750608  0.38024476    -0.40700
O1778       O  0.60681317  0.95138473  0.36788723    -0.39800
O1779       O  0.77189804  0.59617795  0.39609190    -0.39800
O1780       O  0.79217874  0.57229068  0.41150868    -0.37500
O1781       O  0.73216135  0.55759199  0.26423650    -0.38400
O1782       O  0.77466058  0.60523498  0.27966209    -0.34600
O1783       O  0.78932280  0.00742076  0.36886323    -0.36000
O1784       O  0.83042142  0.05682498  0.38068832    -0.40300
C1785       C  0.54569440  0.55833234  0.39356923    -0.14000
C1786       C  0.54411346  0.54821812  0.36768754     0.16400
C1787       C  0.54586156  0.02355193  0.36444096     0.02700
C1788       C  0.55085204  0.01089196  0.38616114    -0.12500
C1789       C  0.55110308  0.02015470  0.41226261    -0.03600
C1790       C  0.54817041  0.54395337  0.41543282     0.01900
C1791       C  0.54263468  0.56452109  0.34505677     0.08800
N1792       N  0.54349075  0.01153710  0.33863930     0.65100
H1793       H  0.55359186  0.99292621  0.38229677     0.18000
N1794       N  0.55085679  0.55607836  0.44123107     0.75600
H1795       H  0.54563310  0.57791615  0.39682029     0.09500
C1796       C  0.00934736  0.56270769  0.34219538     0.03200
C1797       C  0.00680629  0.57498614  0.31881912    -0.05500
C1798       C  0.53878985  0.59167391  0.29907331    -0.23900
C1799       C  0.56956284  0.59212482  0.30314895     0.12500
C1800       C  0.57135991  0.57892192  0.32612742    -0.13000
N1801       N  0.97990837  0.54898144  0.36138084     0.64200
H1802       H  0.98248839  0.57374495  0.31602647     0.12000
N1803       N  0.59890793  0.60512894  0.28409013     0.60800
H1804       H  0.59508200  0.57934708  0.32893696     0.08200
O1805       O  0.52147447  0.54891387  0.45189284    -0.40700
O1806       O  0.58267659  0.58011769  0.44949757    -0.39800
O1807       O  0.57311577  0.01939855  0.32779118    -0.39800
O1808       O  0.51186085  0.98733954  0.33029729    -0.37500
O1809       O  0.62766510  0.63397003  0.28605742    -0.38400
O1810       O  0.60170359  0.58647845  0.27198378    -0.34600
O1811       O  0.97812895  0.56690120  0.37580418    -0.36000
O1812       O  0.94858398  0.02082523  0.35896630    -0.40300
C1813       C  0.51661276  0.82202229  0.13628370    -0.14000
C1814       C  0.53173564  0.80684025  0.13158871     0.16400
C1815       C  0.54346386  0.80678096  0.10579794     0.02700
C1816       C  0.54197328  0.82349878  0.08561759    -0.12500
C1817       C  0.52858968  0.84013866  0.09063371    -0.03600
C1818       C  0.51478919  0.83848461  0.11620638     0.01900
C1819       C  0.53308055  0.79029366  0.15402669     0.08800
N1820       N  0.55805987  0.79081531  0.09991632     0.65100
H1821       H  0.55249810  0.82425689  0.06614247     0.18000
N1822       N  0.99650854  0.85282114  0.12131109     0.75600
H1823       H  0.00388293  0.82043963  0.15492519     0.09500
C1824       C  0.55296174  0.80693756  0.17734008     0.03200
C1825       C  0.54736799  0.79041492  0.20033599    -0.05500
C1826       C  0.52185308  0.75721691  0.20097638    -0.23900
C1827       C  0.50348191  0.74041530  0.17704373     0.12500
C1828       C  0.50928993  0.75716107  0.15390145    -0.13000
N1829       N  0.57816186  0.84076387  0.17828532     0.64200
H1830       H  0.56271986  0.80393112  0.21801038     0.12000
N1831       N  0.47739133  0.70656932  0.17594046     0.60800
H1832       H  0.49345356  0.74414888  0.13615780     0.08200
O1833       O  0.01077987  0.87643881  0.13636806    -0.40700
O1834       O  0.96138676  0.83433345  0.11721212    -0.39800
O1835       O  0.53747184  0.76471465  0.08765911    -0.39800
O1836       O  0.59326753  0.80628227  0.10039937    -0.37500
O1837       O  0.44254659  0.69238098  0.17772868    -0.38400
O1838       O  0.48793470  0.69215631  0.16590117    -0.34600
O1839       O  0.08223439  0.85926680  0.19120155    -0.36000
O1840       O  0.61264897  0.85567353  0.17348114    -0.40300
C1841       C  0.56636476  0.57622560  0.17138813    -0.14000
C1842       C  0.53411085  0.55445926  0.15599261     0.16400
C1843       C  0.99661715  0.54642180  0.16188460     0.02700
C1844       C  0.99541705  0.56010376  0.18494762    -0.12500
C1845       C  0.53014672  0.58203609  0.20194807    -0.03600
C1846       C  0.56467875  0.58978585  0.19429205     0.01900
C1847       C  0.53737737  0.53842353  0.13380561     0.08800
N1848       N  0.96200321  0.52249677  0.14859772     0.65100
H1849       H  0.96857475  0.55329114  0.19124322     0.18000
N1850       N  0.59853050  0.61178277  0.20907331     0.75600
H1851       H  0.59310455  0.58239548  0.16575845     0.09500
C1852       C  0.53154771  0.54172271  0.10704003     0.03200
C1853       C  0.53767681  0.52762141  0.08700263    -0.05500
C1854       C  0.54692342  0.00884358  0.09307040    -0.23900
C1855       C  0.55370165  0.00677936  0.12009348     0.12500
C1856       C  0.04885133  0.02572315  0.13782621    -0.13000
N1857       N  0.52049129  0.55997939  0.09960652     0.64200
H1858       H  0.53252546  0.53018524  0.06663181     0.12000
N1859       N  0.07223588  0.99811778  0.12545105     0.60800
H1860       H  0.05556995  0.02467337  0.15818774     0.08200
O1861       O  0.61398244  0.60197273  0.22019931    -0.40700
O1862       O  0.61828848  0.64091711  0.20396702    -0.39800
O1863       O  0.94502977  0.99483390  0.15986090    -0.39800
O1864       O  0.94324232  0.02816312  0.13824711    -0.37500
O1865       O  0.10772358  0.01570434  0.12677681    -0.38400
O1866       O  0.05264827  0.97210621  0.13769459    -0.34600
O1867       O  0.54577317  0.58875948  0.09373481    -0.36000
O1868       O  0.48747634  0.54571216  0.09097419    -0.40300
C1869       C  0.77757069  0.52065640  0.15954388    -0.14000
C1870       C  0.74629198  0.51969784  0.15849095     0.16400
C1871       C  0.73901459  0.53142927  0.18017280     0.02700
C1872       C  0.76253972  0.54353479  0.20223603    -0.12500
C1873       C  0.79365539  0.54436472  0.20368304    -0.03600
C1874       C  0.80141796  0.53299532  0.18183689     0.01900
C1875       C  0.72008613  0.50477949  0.13559856     0.08800
N1876       N  0.70808257  0.53170252  0.18012344     0.65100
H1877       H  0.75638993  0.55272669  0.21836409     0.18000
N1878       N  0.83208029  0.53240859  0.18222698     0.75600
H1879       H  0.78296483  0.51102011  0.14329445     0.09500
C1880       C  0.73207841  0.51571666  0.10944628     0.03200
C1881       C  0.70552979  0.50273668  0.08896763    -0.05500
C1882       C  0.66487205  0.98110907  0.09560227    -0.23900
C1883       C  0.65473929  0.97006206  0.12201971     0.12500
C1884       C  0.68197199  0.47927276  0.14026079    -0.13000
N1885       N  0.77086812  0.54057289  0.10333765     0.64200
H1886       H  0.71532031  0.51242531  0.06922640     0.12000
N1887       N  0.61740325  0.94266048  0.12889685     0.60800
H1888       H  0.67388699  0.97682405  0.16218367     0.08200
O1889       O  0.86213629  0.55393999  0.17028742    -0.40700
O1890       O  0.82536247  0.50661216  0.18713016    -0.39800
O1891       O  0.67917026  0.51124923  0.19361109    -0.39800
O1892       O  0.71411832  0.55690228  0.17381669    -0.37500
O1893       O  0.61012954  0.91621274  0.13033989    -0.38400
O1894       O  0.59601681  0.94627025  0.14051849    -0.34600
O1895       O  0.78996544  0.53348245  0.09354443    -0.36000
O1896       O  0.78239325  0.56841402  0.10062651    -0.40300
C1897       C  0.86088334  0.83366198  0.60814532    -0.14000
C1898       C  0.87199335  0.85134061  0.63159105     0.16400
C1899       C  0.90888393  0.88049433  0.63372688     0.02700
C1900       C  0.93396559  0.89133034  0.61266429    -0.12500
C1901       C  0.92322560  0.87360348  0.58924600    -0.03600
C1902       C  0.88610584  0.84443702  0.58700676     0.01900
C1903       C  0.84673302  0.83739622  0.65480004     0.08800
N1904       N  0.92145132  0.89938807  0.65724094     0.65100
H1905       H  0.96206020  0.91394991  0.61466151     0.18000
N1906       N  0.87418723  0.82452972  0.56421231     0.75600
H1907       H  0.83301595  0.81074635  0.60666072     0.09500
C1908       C  0.81089061  0.82946304  0.65478100     0.03200
C1909       C  0.78922182  0.81790998  0.67793072    -0.05500
C1910       C  0.80245558  0.81361752  0.70104898    -0.23900
C1911       C  0.83699955  0.81912965  0.70027305     0.12500
C1912       C  0.85878621  0.83113387  0.67731330    -0.13000
N1913       N  0.79648945  0.83377950  0.63177827     0.64200
H1914       H  0.76259141  0.81343643  0.67806156     0.12000
N1915       N  0.84974510  0.81148014  0.72211795     0.60800
H1916       H  0.88529380  0.83539341  0.67698464     0.08200
O1917       O  0.85150704  0.82217627  0.54808283    -0.40700
O1918       O  0.87814930  0.80369085  0.56402038    -0.39800
O1919       O  0.94353517  0.90016262  0.67282117    -0.39800
O1920       O  0.91880884  0.92096898  0.65866137    -0.37500
O1921       O  0.83905805  0.78380306  0.72366466    -0.38400
O1922       O  0.87897231  0.83357519  0.73457747    -0.34600
O1923       O  0.77095218  0.80979242  0.61837560    -0.36000
O1924       O  0.80145189  0.85916523  0.62926896    -0.40300
C1925       C  0.86461175  0.85505503  0.88973832    -0.14000
C1926       C  0.87499098  0.84999015  0.86553507     0.16400
C1927       C  0.91048066  0.85747600  0.86324771     0.02700
C1928       C  0.93464790  0.86958236  0.88506242    -0.12500
C1929       C  0.92433947  0.87451544  0.90946450    -0.03600
C1930       C  0.88881012  0.86719851  0.91165749     0.01900
C1931       C  0.85040372  0.84045543  0.84220530     0.08800
N1932       N  0.92232751  0.85258978  0.83901760     0.65100
H1933       H  0.96157898  0.87478349  0.88285988     0.18000
N1934       N  0.87741127  0.87326570  0.93543725     0.75600
H1935       H  0.83802676  0.85053338  0.89140294     0.09500
C1936       C  0.81265839  0.81215375  0.84159902     0.03200
C1937       C  0.79047096  0.80452965  0.81909640    -0.05500
C1938       C  0.80529643  0.82470767  0.79707394    -0.23900
C1939       C  0.84255130  0.85376053  0.79828727     0.12500
C1940       C  0.86461598  0.86128203  0.82073659    -0.13000
N1941       N  0.79688499  0.79031635  0.86316168     0.64200
H1942       H  0.76205482  0.78207518  0.81843736     0.12000
N1943       N  0.85812976  0.87641875  0.77733719     0.60800
H1944       H  0.89302347  0.88374987  0.82150784     0.08200
O1945       O  0.85487406  0.85055765  0.95088994    -0.40700
O1946       O  0.88119992  0.89820520  0.93712738    -0.39800
O1947       O  0.94910839  0.87632536  0.82615940    -0.39800
O1948       O  0.91348006  0.82587179  0.83456345    -0.37500
O1949       O  0.85726215  0.89897506  0.77927574    -0.38400
O1950       O  0.88159603  0.87922063  0.76178053    -0.34600
O1951       O  0.77448117  0.78901743  0.87880111    -0.36000
O1952       O  0.79741681  0.76751965  0.86241725    -0.40300
C1953       C  0.57407283  0.83603831  0.68030163    -0.14000
C1954       C  0.56091407  0.81703683  0.65748160     0.16400
C1955       C  0.55729407  0.78944109  0.65761095     0.02700
C1956       C  0.56616298  0.78097155  0.68051263    -0.12500
C1957       C  0.57844869  0.79950282  0.70355638    -0.03600
C1958       C  0.58273657  0.82753433  0.70330033     0.01900
C1959       C  0.55325522  0.82757299  0.63340027     0.08800
N1960       N  0.54364220  0.76928261  0.63488523     0.65100
H1961       H  0.56237445  0.75926567  0.68049464     0.18000
N1962       N  0.59738152  0.84836313  0.72570414     0.75600
H1963       H  0.57811437  0.85785881  0.68013840     0.09500
C1964       C  0.52570307  0.83142864  0.63331917     0.03200
C1965       C  0.52305610  0.84600337  0.61163370    -0.05500
C1966       C  0.54697946  0.85613448  0.58952023    -0.23900
C1967       C  0.57360086  0.85108052  0.58942844     0.12500
C1968       C  0.57660666  0.83710034  0.61131618    -0.13000
N1969       N  0.50023517  0.82042693  0.65512173     0.64200
H1970       H  0.50215878  0.84932661  0.61201396     0.12000
N1971       N  0.59982998  0.86211617  0.56824321     0.60800
H1972       H  0.59845593  0.83488832  0.61151470     0.08200
O1973       O  0.57481270  0.84727259  0.74098490    -0.40700
O1974       O  0.63172706  0.87276115  0.72586467    -0.39800
O1975       O  0.56690001  0.77132577  0.61965158    -0.39800
O1976       O  0.50931583  0.74495133  0.63382257    -0.37500
O1977       O  0.63183319  0.88915238  0.57016385    -0.38400
O1978       O  0.59553790  0.84213967  0.55238906    -0.34600
O1979       O  0.50607485  0.83984048  0.67242149    -0.36000
O1980       O  0.47607934  0.79107320  0.65949003    -0.40300
C1981       C  0.52402951  0.78879210  0.82570495    -0.14000
C1982       C  0.55285360  0.80643915  0.84460376     0.16400
C1983       C  0.58665189  0.81118492  0.84116445     0.02700
C1984       C  0.59151028  0.79928968  0.81859193    -0.12500
C1985       C  0.56350882  0.78314174  0.79904902    -0.03600
C1986       C  0.52915814  0.77731713  0.80291356     0.01900
C1987       C  0.54701435  0.81951033  0.86775771     0.08800
N1988       N  0.61728142  0.82973281  0.85946136     0.65100
H1989       H  0.61826879  0.80436869  0.81560114     0.18000
N1990       N  0.49900661  0.75935774  0.78418804     0.75600
H1991       H  0.49747299  0.78406880  0.82858660     0.09500
C1992       C  0.53866809  0.84008144  0.86462236     0.03200
C1993       C  0.53432756  0.85262648  0.88688605    -0.05500
C1994       C  0.53895512  0.84582943  0.91267909    -0.23900
C1995       C  0.54573315  0.82402609  0.91577603     0.12500
C1996       C  0.54940149  0.81101332  0.89333946    -0.13000
N1997       N  0.53678896  0.85013713  0.83901141     0.64200
H1998       H  0.52849461  0.86875573  0.88371214     0.12000
N1999       N  0.55079581  0.81581744  0.94123219     0.60800
H2000       H  0.55481206  0.79453296  0.89593485     0.08200
O2001       O  0.99958599  0.78214340  0.76586089    -0.40700
O2002       O  0.47441109  0.72980252  0.78729578    -0.39800
O2003       O  0.62340461  0.81585098  0.87560802    -0.39800
O2004       O  0.64334249  0.85868965  0.85460166    -0.37700
O2005       O  0.52442517  0.78903492  0.95078795    -0.38400
O2006       O  0.58389707  0.83038627  0.94982021    -0.34600
O2007       O  0.50495582  0.83862343  0.82949020    -0.36000
O2008       O  0.56581765  0.87600005  0.82996644    -0.40300
C2009       C  0.57455414  0.60109762  0.65750322    -0.14000
C2010       C  0.57325763  0.57481477  0.66004906     0.16400
C2011       C  0.57908061  0.56768411  0.68542085     0.02700
C2012       C  0.58434809  0.58576730  0.70745712    -0.12500
C2013       C  0.58458623  0.61156251  0.70523423    -0.03600
C2014       C  0.58026819  0.61949828  0.67961172     0.01900
C2015       C  0.56711960  0.55609045  0.63588230     0.08800
N2016       N  0.58161782  0.54318698  0.68926586     0.65100
H2017       H  0.58892492  0.57963458  0.72653731     0.18000
N2018       N  0.08066287  0.64377380  0.67275181     0.75600
H2019       H  0.07162914  0.60527274  0.63596580     0.09500
C2020       C  0.53687980  0.52318989  0.63378023     0.03200
C2021       C  0.53607657  0.00802490  0.61106544    -0.05500
C2022       C  0.55884837  0.52169813  0.59009020    -0.23900
C2023       C  0.58733107  0.55497237  0.59120804     0.12500
C2024       C  0.59162837  0.57167674  0.61416928    -0.13000
N2025       N  0.00953965  0.00668975  0.65127440     0.64200
H2026       H  0.01359254  0.98122991  0.60873652     0.12000
N2027       N  0.61289281  0.57210318  0.56969214     0.60800
H2028       H  0.61447713  0.59702130  0.61511226     0.08200
O2029       O  0.04956303  0.63771261  0.66855391    -0.40700
O2030       O  0.11065131  0.66994061  0.66504721    -0.39800
O2031       O  0.61354376  0.55016032  0.68744497    -0.39800
O2032       O  0.55635617  0.51922101  0.70266465    -0.37500
O2033       O  0.60740793  0.58669528  0.55389386    -0.38400
O2034       O  0.64502866  0.57937276  0.57063388    -0.34600
O2035       O  0.98102722  0.00501398  0.64827227    -0.36000
O2036       O  0.00483129  0.48526420  0.66626643    -0.40300
C2037       C  0.57842708  0.60455448  0.84991089    -0.14000
C2038       C  0.58683807  0.58395489  0.84826510     0.16400
C2039       C  0.59748116  0.57980519  0.82343531     0.02700
C2040       C  0.59919659  0.59576173  0.80111247    -0.12500
C2041       C  0.58982545  0.61570983  0.80239585    -0.03600
C2042       C  0.57943115  0.62014452  0.82726934     0.01900
C2043       C  0.57949568  0.56371628  0.87138089     0.08800
N2044       N  0.60585440  0.55883432  0.82026639     0.65100
H2045       H  0.60762577  0.59210477  0.78242700     0.18000
N2046       N  0.56640836  0.63783176  0.82957290     0.75600
H2047       H  0.56890553  0.60715069  0.86856299     0.09500
C2048       C  0.59681166  0.57614789  0.89644826     0.03200
C2049       C  0.58936871  0.55556064  0.91703502    -0.05500
C2050       C  0.56531137  0.52259805  0.91310201    -0.23900
C2051       C  0.54143419  0.00449425  0.88796589     0.12500
C2052       C  0.55353313  0.53074775  0.86814769    -0.13000
N2053       N  0.62327631  0.60951982  0.90109684     0.64200
H2054       H  0.60380142  0.56555072  0.93584150     0.12000
N2055       N  0.51360425  0.97112738  0.88355658     0.60800
H2056       H  0.53836794  0.52069025  0.84959844     0.08200
O2057       O  0.58739416  0.66476316  0.84049002    -0.40700
O2058       O  0.53147448  0.62334238  0.82784873    -0.39800
O2059       O  0.58151775  0.53205048  0.80969089    -0.39800
O2060       O  0.63981163  0.57008454  0.82086572    -0.37500
O2061       O  0.47925795  0.95804191  0.88682802    -0.38400
O2062       O  0.01211111  0.95520937  0.86977574    -0.34600
O2063       O  0.61413394  0.62212150  0.91617581    -0.36000
O2064       O  0.65774677  0.62405550  0.89653988    -0.40300
loop_ 
_geom_bond_atom_site_label_1 
_geom_bond_atom_site_label_2 
_geom_bond_distance 
_geom_bond_site_symmetry_2 
_ccdc_geom_bond_type 
C1            N2   1.358       .  A
C1            N6   1.358       .  A
C1          C465   1.489       .  S
N2            C3   1.361       .  A
C3            N4   1.363       .  A
C3           C17   1.461       .  S
N4            C5   1.360       .  A
C5            N6   1.358       .  A
C5          C493   1.492       .  S
C7            N8   1.362       .  A
C7           N12   1.356       .  A
C7          C409   1.475       .  S
N8            C9   1.360       .  A
C9           N10   1.357       .  A
C9           C13   1.465       .  S
N10          C11   1.358       .  A
C11          N12   1.355       .  A
C11         C437   1.469       .  S
C13          N14   1.360       .  A
C13          N18   1.360       .  A
N14          C15   1.359       .  A
C15          N16   1.355       .  A
C15          C23   1.464       .  S
N16          C17   1.356       .  A
C17          N18   1.359       .  A
C19          N20   1.352       .  A
C19          N24   1.360       .  A
C19         C362   1.474       .  S
N20          C21   1.353       .  A
C21          N22   1.361       .  A
C21         C390   1.473       .  S
N22          C23   1.360       .  A
C23          N24   1.358       .  A
Zr25         O26   2.438       .  S
Zr25         O27   2.418   1_455  S
Zr25         O28   2.429       .  S
Zr25         O31   2.425       .  S
Zr25         O33   2.375       .  S
Zr25         O34   2.375       .  S
Zr25         O35   2.398       .  S
Zr25         O36   2.400       .  S
O26          H82   0.990       .  S
O26          H90   0.990       .  S
O27        C1079   1.283       .  A
O28          C49   1.286       .  A
O29         Zr39   2.462   1_556  S
O29          C48   1.291       .  A
O30         Zr38   2.429       .  S
O30          C49   1.283       .  A
O31          C48   1.284       .  A
O32         Zr40   2.419       .  S
O32          C47   1.280       .  A
O33         Zr38   2.391       .  S
O33       Zr1072   2.375   1_455  S
O34         Zr39   2.384   1_556  S
O34       Zr1072   2.368   1_455  S
O34          H69   0.978   1_455  S
O35         Zr38   2.398       .  S
O35         Zr55   2.395   1_556  S
O35          H72   0.968       .  S
O36         Zr39   2.396   1_556  S
O36         Zr55   2.400   1_556  S
Zr37       O1094   2.441       .  S
Zr37         O56   2.420       .  S
Zr37         O64   2.413       .  S
Zr37         O52   2.408       .  S
Zr37         O43   2.395       .  S
Zr37         O44   2.394       .  S
Zr37         O45   2.376       .  S
Zr37         O46   2.383       .  S
Zr38         O57   2.438   1_556  S
Zr38         O50   2.434   1_455  S
Zr38         O51   2.431   1_556  S
Zr38         O44   2.394   1_556  S
Zr38         O45   2.382   1_556  S
Zr39        O557   2.434       .  S
Zr39       O1095   2.436       .  S
Zr39         O65   2.451       .  S
Zr39         O43   2.398       .  S
Zr39         O46   2.392       .  S
Zr40         O66   2.435       .  S
Zr40         O67   2.436   1_556  S
Zr40         O42   2.437       .  S
Zr40       O1065   2.380       .  S
Zr40       O1066   2.367       .  S
Zr40       O1075   2.397   1_556  S
Zr40       O1076   2.393   1_556  S
O41        Zr555   2.434   1_545  S
O41          H78   0.990       .  S
O42          H73   0.990       .  S
O42          H87   0.990   1_556  S
O43       Zr1072   2.395   1_454  S
O44       Zr1072   2.386   1_454  S
O44        H1102   0.978   1_455  S
O45         Zr55   2.371       .  S
O46         Zr55   2.377       .  S
O46          H71   0.960       .  S
C47         C381   1.483       .  S
C47        O1059   1.285       .  A
C48        C1018   1.491       .  S
C49         C446   1.489       .  S
O50        H1118   0.990   1_655  S
O51          C53   1.285       .  A
O52          C53   1.280       .  A
C53         C269   1.470       .  S
O54         Zr55   2.436   1_556  S
O54         H599   0.990       .  S
Zr55         O58   2.437       .  S
Zr55        O575   2.439       .  S
Zr55         O60   2.425       .  S
O56          C61   1.282       .  A
O57          H74   0.990       .  S
O57          H89   0.990   1_554  S
O58          H75   0.990   1_554  S
O59        Zr571   2.439   1_545  S
O59          H79   0.990       .  S
O59          H88   0.990   1_554  S
O60          C61   1.284       .  A
C61         C334   1.482       .  S
O62       Zr1069   2.434       .  S
O62          H81   0.989       .  S
O62          H85   0.990       .  S
O63       Zr1071   2.435       .  S
O63          H84   0.990       .  S
O63        H1109   0.990       .  S
O64          C68   1.281       .  A
O65          C68   1.290       .  A
O66          H76   0.990       .  S
O67          H80   0.990       .  S
C68         C306   1.492       .  S
H70        O1076   0.974       .  S
H77        O1095   0.990   1_556  S
H83         O570   0.990   1_545  S
H86        O1082   0.990       .  S
Zr91       O1124   2.437       .  S
Zr91         O93   2.415       .  S
Zr91         O94   2.425       .  S
Zr91         O97   2.415       .  S
Zr91         O99   2.376       .  S
Zr91        O100   2.382       .  S
Zr91        O101   2.394       .  S
Zr91        O102   2.396       .  S
O92       Zr1123   2.437       .  S
O92         H156   0.990       .  S
O92        H1180   0.990       .  S
O93         C113   1.280       .  A
O94         C115   1.285       .  A
O95        Zr105   2.446       .  S
O95         C114   1.289       .  A
O96        Zr104   2.428       .  S
O96         C115   1.282       .  A
O97         C114   1.282       .  A
O98        Zr106   2.444       .  S
O98         C113   1.287       .  A
O99        Zr104   2.393       .  S
O99        Zr106   2.373       .  S
O100       Zr105   2.390       .  S
O100       Zr106   2.370       .  S
O100        H135   0.968       .  S
O101       Zr104   2.405       .  S
O101      Zr1153   2.399   1_455  S
O101       H1170   0.961   1_455  S
O102       Zr105   2.399       .  S
O102      Zr1153   2.390   1_455  S
Zr103       O128   2.439       .  S
Zr103       O122   2.435   1_455  S
Zr103       O130   2.432       .  S
Zr103       O118   2.430       .  S
Zr103       O109   2.404       .  S
Zr103       O110   2.406       .  S
Zr103       O111   2.379       .  S
Zr103       O112   2.376       .  S
Zr104      O1155   2.436   1_455  S
Zr104       O632   2.434       .  S
Zr104       O117   2.429       .  S
Zr104       O110   2.398       .  S
Zr104       O111   2.399       .  S
Zr105       O107   2.435   1_455  S
Zr105       O129   2.437       .  S
Zr105       O131   2.464       .  S
Zr105       O109   2.387       .  S
Zr105       O112   2.391       .  S
Zr106       O132   2.437       .  S
Zr106       O133   2.435       .  S
Zr106       O624   2.439       .  S
Zr106       O109   2.405       .  S
Zr106       O110   2.398       .  S
O107        H144   0.990       .  S
O108       Zr622   2.438   1_545  S
O108        H139   0.990       .  S
O108        H153   0.990       .  S
O110        H136   0.961       .  S
O111      Zr1153   2.385   1_455  S
O112      Zr1153   2.379   1_455  S
O112        H137   0.974   1_455  S
C113        C213   1.487       .  S
C114        C185   1.483       .  S
C115        C241   1.490       .  S
O116       Zr620   2.437   1_545  S
O116        H152   0.990       .  S
O117        C119   1.283       .  A
O118        C119   1.284       .  A
C119        C990   1.472       .  S
O120       Zr121   2.436       .  S
O120        H149   0.990       .  S
Zr121       O124   2.436       .  S
Zr121       O125   2.438       .  S
Zr121       O126   2.414       .  S
Zr121      O1133   2.394       .  S
Zr121      O1134   2.393       .  S
Zr121      O1143   2.382       .  S
Zr121      O1144   2.380       .  S
O122       C1159   1.286       .  A
O123      Zr1136   2.436       .  S
O123        H155   0.990       .  S
O123       H1172   0.990       .  S
O124        H141   0.990       .  S
O125        H145   0.990       .  S
O125        H154   0.990       .  S
O126        C127   1.279       .  A
C127        C353   1.476       .  S
C127       O1154   1.286       .  A
O128        H147   0.990       .  S
O128        H151   0.990       .  S
O129        H143   0.990       .  S
O129        H150   0.990       .  S
O130        C134   1.285       .  A
O131        C134   1.290       .  A
O132        H142   0.990       .  S
O133        H662   0.990       .  S
C134        C418   1.494       .  S
H138       O1133   0.964       .  S
H140       O1155   0.990       .  S
H146        O649   0.990       .  S
H148       O1124   0.990       .  S
C157        N158   1.359       .  A
C157        N162   1.360       .  A
C157        C325   1.476       .  S
N158        C159   1.353       .  A
C159        N160   1.358       .  A
C159        C222   1.478       .  S
N160        C161   1.359       .  A
C161        N162   1.361       .  A
C161        C171   1.462       .  S
C163        N164   1.362       .  A
C163        N168   1.358       .  A
C163        C297   1.475       .  S
N164        C165   1.363       .  A
C165        N166   1.360       .  A
C165        C250   1.485       .  S
N166       C1199   1.355   1_455  A
C167       N1198   1.355       .  A
C167       N1200   1.356       .  A
C167        C169   1.461       .  S
N168       C1199   1.354   1_455  A
C169        N170   1.359       .  A
C169        N174   1.359       .  A
N170        C171   1.358       .  A
C171        N172   1.358       .  A
N172        C173   1.357       .  A
C173        N174   1.358       .  A
C173       C1209   1.463       .  S
C175        N176   1.355   1_455  A
C175        N180   1.361       .  A
C175        C278   1.488       .  S
N176        C177   1.357       .  A
C177        N178   1.359       .  A
C177       C1205   1.455       .  S
N178        C179   1.360   1_655  A
C179        N180   1.354       .  A
C179        C194   1.494       .  S
C181        C182   1.400       .  A
C181        C186   1.397       .  A
C181       H1223   1.084       .  S
C182        C187   1.481       .  S
C182        C183   1.409       .  A
C183        C184   1.401       .  A
C183        N188   1.428       .  S
C184        C185   1.405       .  A
C184        H189   1.084       .  S
C185        C186   1.416       .  A
C186       N1222   1.428       .  S
C187        C192   1.408       .  A
C187        C196   1.399       .  A
N188        O203   1.262       .  A
N188        O204   1.262       .  A
N190       C1218   1.428       .  S
N190        O201   1.262       .  A
N190        O202   1.262       .  A
H191       C1213   1.084       .  S
C192        C193   1.401       .  A
C192       N1229   1.428   1_455  S
C193        C194   1.407       .  A
C193       H1230   1.083   1_455  S
C194        C195   1.421       .  A
C195        C196   1.399       .  A
C195        N199   1.428       .  S
C196        H200   1.085       .  S
N197       C1224   1.428       .  S
N197        O207   1.262       .  A
N197       O1240   1.261       .  A
H198       C1225   1.083       .  S
N199        O205   1.262       .  A
N199        O206   1.262       .  A
O208       N1229   1.261       .  A
C209        C214   1.399       .  A
C209        C726   1.400       .  A
C209        H219   1.084       .  S
C210        C215   1.479       .  S
C210        C211   1.409       .  A
C210        C725   1.401   1_545  A
C211        C212   1.401       .  A
C211        N216   1.428       .  S
C212        C729   1.406   1_545  A
C212        H217   1.084       .  S
C213        C214   1.417       .  A
C213        C728   1.406       .  A
C214        N218   1.430       .  S
C215        C220   1.410       .  A
C215        C224   1.401       .  A
N216        O231   1.262       .  A
N216        O232   1.262       .  A
N218        O229   1.262       .  A
N218        O230   1.262       .  A
C220        C221   1.401       .  A
C220        N225   1.428       .  S
C221        C222   1.402       .  A
C221        H226   1.084       .  S
C222        C223   1.413       .  A
C223        C224   1.398       .  A
C223        N227   1.429       .  S
C224        H228   1.084       .  S
N225        O751   1.262       .  A
N225        O752   1.261       .  A
N227        O233   1.262       .  A
N227        O234   1.262       .  A
O235        N741   1.262       .  A
O236        N741   1.261       .  A
C237        C238   1.402       .  A
C237        C242   1.404       .  A
C237        H247   1.083       .  S
C238        C243   1.485       .  S
C238        C755   1.411       .  A
C239        C240   1.390       .  A
C239        C754   1.406       .  A
C239        N244   1.429       .  S
C240        C241   1.407       .  A
C240        H245   1.083       .  S
C241        C758   1.420       .  A
C242        C757   1.420       .  A
C242        N246   1.428       .  S
C243        C252   1.400       .  A
C243       C1280   1.411       .  A
N244        O259   1.262       .  A
N244        O260   1.262       .  A
N246        O257   1.262       .  A
N246        O258   1.262       .  A
C248        C249   1.400       .  A
C248       C1275   1.409       .  A
C248        N253   1.429       .  S
C249       C1282   1.406       .  A
C249        H254   1.084       .  S
C250        C251   1.412       .  A
C250       C1281   1.407       .  A
C251        C252   1.397       .  A
C251        N255   1.425       .  S
C252        H256   1.083       .  S
N253        O263   1.262       .  A
N253        O780   1.262       .  A
N255        O261   1.262       .  A
N255        O262   1.261       .  A
O264        N769   1.262       .  A
C265        C266   1.398       .  A
C265        C270   1.390       .  A
C265       H1307   1.084   1_455  S
C266        C271   1.473       .  S
C266        C267   1.409       .  A
C267        C268   1.398       .  A
C267        N272   1.428       .  S
C268        C269   1.404       .  A
C268        H273   1.084       .  S
C269        C270   1.412       .  A
C270       N1306   1.428   1_455  S
C271        C276   1.407       .  A
C271        C280   1.401       .  A
N272        O287   1.262       .  A
N272        O288   1.262       .  A
N274       C1302   1.428       .  S
N274        O285   1.262       .  A
N274        O286   1.262       .  A
H275       C1297   1.084       .  S
C276        C277   1.386       .  A
C276        N281   1.430       .  S
C277        C278   1.403       .  A
C277        H282   1.079       .  S
C278        C279   1.421       .  A
C279        C280   1.403       .  A
C279        N283   1.429   1_455  S
C280        H284   1.084       .  S
N281        O292   1.261       .  A
N281       O1323   1.262       .  A
N283        O289   1.262       .  A
N283        O290   1.262   1_655  A
O291       N1313   1.262       .  A
C293        C294   1.405       .  A
C293        C298   1.400       .  A
C293        H303   1.084       .  S
C294        C299   1.485       .  S
C294       C1327   1.412   1_455  A
C295        C296   1.402       .  A
C295       C1326   1.412       .  A
C295        N300   1.429       .  S
C296       C1329   1.403       .  A
C296        H301   1.084       .  S
C297        C298   1.408       .  A
C297       C1328   1.402   1_455  A
C298        N302   1.428       .  S
C299        C304   1.411       .  A
C299       C1856   1.400       .  A
N300        O831   1.262   1_545  A
N300        O832   1.262       .  A
N302        O313   1.261       .  A
N302        O314   1.261       .  A
C304        C305   1.404       .  A
C304        N309   1.428       .  S
C305        C822   1.408       .  A
C305        H310   1.084       .  S
C306        C307   1.420       .  A
C306        C821   1.408       .  A
C307       C1340   1.397       .  A
C307       N1343   1.430       .  S
C308       C1847   1.401       .  A
C308       C1339   1.398       .  A
C308        H312   1.084       .  S
N309        O319   1.262       .  A
N309        O320   1.261   1_455  A
N311       C1339   1.429       .  S
N311        O317   1.262       .  A
N311        O318   1.262       .  A
O315        N816   1.262       .  A
O316        N816   1.262       .  A
C321        C322   1.403       .  A
C321        C326   1.405       .  A
C321        H331   1.084       .  S
C322        C327   1.473       .  S
C322        C323   1.406       .  A
C323        C324   1.390       .  A
C323        N328   1.428       .  S
C324        C325   1.401       .  A
C324        H329   1.084       .  S
C325        C326   1.414       .  A
C326        N330   1.429       .  S
C327        C332   1.406       .  A
C327        C336   1.400   1_545  A
N328        O343   1.262       .  A
N328        O344   1.262       .  A
N330        O341   1.262       .  A
N330        O342   1.262       .  A
C332        C333   1.397       .  A
C332        N337   1.428       .  S
C333        C850   1.406   1_545  A
C333        H338   1.084       .  S
C334        C335   1.416       .  A
C334        C849   1.406       .  A
C335        C852   1.399       .  A
C335        N339   1.430       .  S
C336        C851   1.397       .  A
C336        H856   1.084       .  S
N337        O347   1.262       .  A
N337        O348   1.262       .  A
N339        O345   1.262       .  A
N339        O346   1.262       .  A
H340        C852   1.084       .  S
C349        C350   1.400       .  A
C349        C354   1.400       .  A
C349        H359   1.084       .  S
C350        C355   1.473       .  S
C350        C351   1.409       .  A
C351        C352   1.394       .  A
C351        N356   1.429       .  S
C352        C353   1.402       .  A
C352        H357   1.084       .  S
C353        C354   1.415       .  A
C354        N358   1.429       .  S
C355        C360   1.409       .  A
C355        C364   1.398       .  A
N356        O371   1.262       .  A
N356        O372   1.262       .  A
N358        O369   1.262       .  A
N358        O370   1.262       .  A
C360        C361   1.398       .  A
C360        N365   1.428       .  S
C361        C362   1.402       .  A
C361        H366   1.084       .  S
C362        C363   1.414       .  A
C363        C364   1.394       .  A
C363        N367   1.430       .  S
C364        H368   1.084       .  S
N365        O375   1.262       .  A
N365        O376   1.262       .  A
N367        O373   1.262       .  A
N367        O374   1.261       .  A
C377        C378   1.398       .  A
C377        C382   1.400       .  A
C377        H387   1.084       .  S
C378        C383   1.476       .  S
C378        C379   1.410       .  A
C379        C380   1.395       .  A
C379        N384   1.429       .  S
C380        C381   1.404       .  A
C380        H385   1.084       .  S
C381        C382   1.418       .  A
C382        N386   1.429       .  S
C383        C388   1.412       .  A
C383        C392   1.397       .  A
N384        O399   1.262       .  A
N384        O400   1.262       .  A
N386        O397   1.262       .  A
N386        O398   1.262       .  A
C388        C389   1.401       .  A
C388        N393   1.428       .  S
C389        C390   1.402       .  A
C389        H394   1.084       .  S
C390        C391   1.413       .  A
C391        C392   1.393       .  A
C391        N395   1.429       .  S
C392        H396   1.084       .  S
N393        O403   1.262       .  A
N393        O404   1.262       .  A
N395        O401   1.262       .  A
N395        O402   1.261       .  A
C405        C406   1.401       .  A
C405        C410   1.398       .  A
C405        H415   1.084       .  S
C406        C411   1.483       .  S
C406        C407   1.410       .  A
C407        C408   1.402       .  A
C407        N412   1.427       .  S
C408        C409   1.401       .  A
C408        H413   1.084       .  S
C409        C410   1.412       .  A
C410        N414   1.429       .  S
C411        C416   1.408       .  A
C411        C420   1.399       .  A
N412        O427   1.262       .  A
N412        O428   1.262   1_455  A
N414        O425   1.262       .  A
N414        O426   1.262       .  A
C416        C417   1.405       .  A
C416        N421   1.431       .  S
C417        C418   1.410       .  A
C417        H422   1.084       .  S
C418        C419   1.416       .  A
C419        C420   1.404       .  A
C419        N423   1.427       .  S
C420        H424   1.084       .  S
N421        O431   1.262       .  A
N421        O432   1.262   1_455  A
N423        O429   1.262       .  A
N423        O430   1.261       .  A
C433        C434   1.400       .  A
C433        C438   1.397       .  A
C433        H443   1.084       .  S
C434        C439   1.477       .  S
C434        C435   1.412       .  A
C435        C436   1.398       .  A
C435        N440   1.429       .  S
C436        C437   1.401       .  A
C436        H441   1.084       .  S
C437        C438   1.409       .  A
C438        N442   1.428       .  S
C439        C444   1.408       .  A
C439        C448   1.400       .  A
N440        O455   1.262       .  A
N440        O456   1.262       .  A
N442        O454   1.262   1_455  A
N442       O1485   1.262   1_455  A
C444        C445   1.393       .  A
C444        N449   1.429       .  S
C445        C446   1.406       .  A
C445        H450   1.084       .  S
C446        C447   1.419       .  A
C447        C448   1.402       .  A
C447        N451   1.428       .  S
C448        H452   1.084       .  S
N449        O459   1.262       .  A
N449        O460   1.262       .  A
N451        O457   1.262       .  A
N451        O458   1.262       .  A
O453       N1474   1.262       .  A
C461        C462   1.402       .  A
C461        C466   1.405       .  A
C461       H1503   1.084       .  S
C462        C467   1.481       .  S
C462        C463   1.408       .  A
C463        C464   1.397       .  A
C463        N468   1.429       .  S
C464        C465   1.406       .  A
C464        H469   1.084       .  S
C465        C466   1.416       .  A
C466       N1502   1.428       .  S
C467        C472   1.410       .  A
C467        C476   1.403       .  A
N468        O483   1.262       .  A
N468        O484   1.261       .  A
N470       C1498   1.428       .  S
N470        O481   1.262       .  A
N470        O482   1.262       .  A
H471       C1493   1.084       .  S
C472        C989   1.397       .  A
C472       N2025   1.429       .  S
C473        C988   1.397       .  A
C473        C990   1.400       .  A
C473       H1510   1.084       .  S
C474        C635   1.477       .  S
C474        C475   1.414       .  A
C474        C989   1.401       .  A
C475        C476   1.403       .  A
C475        N479   1.429       .  S
C476        H480   1.084       .  S
N477       C2020   1.429       .  S
N477        O487   1.262       .  A
N477       O1004   1.262       .  A
H478       C1505   1.084       .  S
N479        O485   1.262       .  A
N479        O486   1.262       .  A
O488        N993   1.262   1_565  A
C489        C490   1.404       .  A
C489        C494   1.408       .  A
C489        H499   1.083       .  S
C490        C495   1.490       .  S
C490        C491   1.411       .  A
C491        C492   1.397       .  A
C491        N496   1.429       .  S
C492        C493   1.405       .  A
C492        H497   1.084       .  S
C493        C494   1.416       .  A
C494        N498   1.428       .  S
C495        C500   1.413       .  A
C495        C504   1.403       .  A
N496        O511   1.262       .  A
N496        O512   1.262       .  A
N498        O509   1.262       .  A
N498        O510   1.262       .  A
C500        C501   1.404       .  A
C500        N505   1.428       .  S
C501        C502   1.404       .  A
C501        H506   1.084       .  S
C502        C564   1.485   1_545  S
C502       C1019   1.414       .  A
C503       C1018   1.416       .  A
C503       C1020   1.401       .  A
C503        N507   1.430       .  S
C504       C1019   1.401       .  A
C504        H508   1.084       .  S
N505        O515   1.262       .  A
N505        O516   1.262       .  A
N507        O513   1.262   1_455  A
N507       O1546   1.262       .  A
O514       N1539   1.262       .  A
C517        N518   1.359       .  A
C517        N522   1.357       .  A
C517        C981   1.493       .  S
N518        C519   1.364       .  A
C519        N520   1.366       .  A
C519        C533   1.467       .  S
N520        C521   1.361       .  A
C521        N522   1.357       .  A
C521       C1009   1.493       .  S
C523        N524   1.361       .  A
C523        N528   1.356       .  A
C523        C925   1.475       .  S
N524        C525   1.360       .  A
C525        N526   1.360       .  A
C525        C529   1.471       .  S
N526        C527   1.362       .  A
C527        N528   1.355       .  A
C527        C953   1.476       .  S
C529        N530   1.362       .  A
C529        N534   1.362       .  A
N530        C531   1.360       .  A
C531        N532   1.356       .  A
C531        C539   1.469       .  S
N532        C533   1.358       .  A
C533        N534   1.361       .  A
C535        N536   1.356       .  A
C535        N540   1.361       .  A
C535        C878   1.479       .  S
N536        C537   1.355       .  A
C537        N538   1.362       .  A
C537        C906   1.477       .  S
N538        C539   1.360       .  A
C539        N540   1.359       .  A
Zr541       O542   2.439       .  S
Zr541       O543   2.416   1_455  S
Zr541       O544   2.429       .  S
Zr541       O547   2.428       .  S
Zr541       O549   2.375       .  S
Zr541       O550   2.375       .  S
Zr541       O551   2.398       .  S
Zr541       O552   2.398       .  S
O542        H598   0.990       .  S
O542        H606   0.990       .  S
O543       C1595   1.283       .  A
O544        C565   1.287       .  A
O545       Zr555   2.451   1_546  S
O545        C564   1.289   1_545  A
O546       Zr554   2.436   1_556  S
O546        C565   1.284       .  A
O547        C564   1.285       .  A
O548       Zr556   2.432       .  S
O548        C563   1.283       .  A
O549       Zr554   2.394   1_556  S
O549      Zr1588   2.371   1_455  S
O550       Zr555   2.381   1_556  S
O550      Zr1588   2.369   1_455  S
O550        H585   0.977   1_455  S
O551       Zr554   2.402   1_556  S
O551       Zr571   2.391   1_556  S
O551        H588   0.966       .  S
O552       Zr555   2.395   1_556  S
O552       Zr571   2.397   1_556  S
Zr553      O1610   2.436       .  S
Zr553       O572   2.421       .  S
Zr553       O580   2.423       .  S
Zr553       O568   2.418       .  S
Zr553       O559   2.400       .  S
Zr553       O560   2.397       .  S
Zr553       O561   2.378       .  S
Zr553       O562   2.383       .  S
Zr554       O573   2.437       .  S
Zr554       O566   2.434   1_455  S
Zr554       O567   2.442       .  S
Zr554       O560   2.393       .  S
Zr554       O561   2.385       .  S
Zr555      O1611   2.437       .  S
Zr555       O581   2.448   1_565  S
Zr555       O559   2.394       .  S
Zr555       O562   2.390       .  S
Zr556       O582   2.435       .  S
Zr556       O583   2.435   1_556  S
Zr556       O558   2.436       .  S
Zr556      O1581   2.381       .  S
Zr556      O1582   2.363       .  S
Zr556      O1591   2.392   1_556  S
Zr556      O1592   2.400   1_556  S
O557        H594   0.990       .  S
O558        H589   0.990       .  S
O558        H603   0.990   1_556  S
O559      Zr1588   2.402   1_454  S
O560      Zr1588   2.392   1_454  S
O560       H1618   0.982   1_455  S
O561       Zr571   2.374       .  S
O562       Zr571   2.378       .  S
O562        H587   0.960       .  S
C563        C897   1.481       .  S
C563       O1575   1.284       .  A
C565        C962   1.490       .  S
O566       H1634   0.990   1_554  S
O567        C569   1.288       .  A
O568        C569   1.282       .  A
C569        C785   1.481       .  S
O570       Zr571   2.437   1_556  S
Zr571       O574   2.436   1_554  S
Zr571       O576   2.420       .  S
O572        C577   1.282       .  A
O573        H590   0.990   1_554  S
O573        H605   0.990   1_554  S
O574        H591   0.990   1_556  S
O575        H595   0.990       .  S
O575        H604   0.990       .  S
O576        C577   1.282       .  A
C577        C850   1.478       .  S
O578      Zr1585   2.441       .  S
O578        H597   0.990       .  S
O578        H601   0.990       .  S
O579      Zr1587   2.436       .  S
O579       H1625   0.990   1_564  S
O579        H600   0.990   1_554  S
O580        C584   1.282       .  A
O581        C584   1.289   1_545  A
O582        H592   0.990       .  S
O583        H596   0.990       .  S
C584        C822   1.491   1_565  S
H586       O1592   0.979       .  S
H593       O1611   0.990   1_656  S
H602       O1598   0.990   1_556  S
Zr607      O1640   2.436       .  S
Zr607       O609   2.420       .  S
Zr607       O610   2.432       .  S
Zr607       O613   2.428       .  S
Zr607       O615   2.380       .  S
Zr607       O616   2.383       .  S
Zr607       O617   2.395       .  S
Zr607       O618   2.397       .  S
O608      Zr1639   2.437       .  S
O608       H1696   0.990       .  S
O608        H672   0.990       .  S
O609        C629   1.282       .  A
O610        C631   1.286       .  A
O611       Zr621   2.450       .  S
O611        C630   1.289       .  A
O612       Zr620   2.429   1_545  S
O612        C631   1.283   1_545  A
O613        C630   1.284       .  A
O614       Zr622   2.432       .  S
O614        C629   1.284       .  A
O615       Zr620   2.391       .  S
O615       Zr622   2.375       .  S
O616       Zr621   2.389       .  S
O616       Zr622   2.373       .  S
O616        H651   0.966       .  S
O617       Zr620   2.402       .  S
O617      Zr1669   2.390   1_455  S
O617       H1686   0.964   1_455  S
O618       Zr621   2.400       .  S
O618      Zr1669   2.393   1_455  S
Zr619       O644   2.443       .  S
Zr619       O638   2.433   1_455  S
Zr619       O646   2.441       .  S
Zr619       O634   2.434       .  S
Zr619       O625   2.401       .  S
Zr619       O626   2.405       .  S
Zr619       O627   2.378       .  S
Zr619       O628   2.378       .  S
Zr620      O1671   2.436       .  S
Zr620       O633   2.433   1_565  S
Zr620       O626   2.396       .  S
Zr620       O627   2.396       .  S
Zr621       O623   2.434   1_455  S
Zr621       O645   2.437       .  S
Zr621       O647   2.459       .  S
Zr621       O625   2.391       .  S
Zr621       O628   2.389       .  S
Zr622       O648   2.437       .  S
Zr622       O649   2.435       .  S
Zr622       O625   2.400       .  S
Zr622       O626   2.396       .  S
O623        H660   0.990   1_655  S
O624        H655   0.990       .  S
O624        H669   0.989       .  S
O626        H652   0.967       .  S
O627      Zr1669   2.380   1_455  S
O628      Zr1669   2.380   1_455  S
O628        H653   0.970   1_455  S
C629        C729   1.482       .  S
C630        C701   1.486       .  S
C631        C757   1.492   1_565  S
O632        H668   0.990       .  S
O633        C635   1.283       .  A
O634        C635   1.286   1_565  A
O636       Zr637   2.435       .  S
O636        H665   0.990       .  S
Zr637       O640   2.435       .  S
Zr637       O641   2.437       .  S
Zr637       O642   2.420       .  S
Zr637      O1649   2.395       .  S
Zr637      O1650   2.392       .  S
Zr637      O1659   2.383       .  S
Zr637      O1660   2.378       .  S
O638       C1675   1.286       .  A
O639      Zr1652   2.436       .  S
O639       H1688   0.990   1_565  S
O639        H671   0.990       .  S
O640        H657   0.990       .  S
O641        H661   0.990       .  S
O641        H670   0.990       .  S
O642        C643   1.280       .  A
C643        C869   1.479       .  S
C643       O1670   1.286       .  A
O644        H663   0.990       .  S
O644        H667   0.990       .  S
O645        H659   0.990       .  S
O645        H666   0.990       .  S
O646        C650   1.287       .  A
O647        C650   1.290       .  A
O648        H658   0.990       .  S
C650        C934   1.494       .  S
H654       O1649   0.964       .  S
H656       O1671   0.990   1_655  S
H664       O1640   0.990       .  S
C673        N674   1.360       .  A
C673        N678   1.361       .  A
C673        C841   1.480       .  S
N674        C675   1.352       .  A
C675        N676   1.358       .  A
C675        C738   1.479       .  S
N676        C677   1.360       .  A
C677        N678   1.362       .  A
C677        C687   1.464       .  S
C679        N680   1.363       .  A
C679        N684   1.360       .  A
C679        C813   1.479       .  S
N680        C681   1.363       .  A
C681        N682   1.359       .  A
C681        C766   1.483       .  S
N682       C1715   1.354   1_455  A
C683       N1714   1.354       .  A
C683       N1716   1.355       .  A
C683        C685   1.462       .  S
N684       C1715   1.355   1_455  A
C685        N686   1.362       .  A
C685        N690   1.356       .  A
N686        C687   1.361       .  A
C687        N688   1.357       .  A
N688        C689   1.355       .  A
C689        N690   1.355       .  A
C689       C1725   1.456       .  S
C691        N692   1.357       .  A
C691        N696   1.361       .  A
C691        C794   1.483       .  S
N692        C693   1.357   1_455  A
C693        N694   1.360   1_655  A
C693       C1721   1.462       .  S
N694        C695   1.363       .  A
C695        N696   1.356       .  A
C695        C710   1.497       .  S
C697        C698   1.401       .  A
C697        C702   1.401       .  A
C697       H1739   1.084   1_455  S
C698        C703   1.484       .  S
C698        C699   1.409       .  A
C699        C700   1.403       .  A
C699        N704   1.428       .  S
C700        C701   1.405       .  A
C700        H705   1.084       .  S
C701        C702   1.415       .  A
C702       N1738   1.428   1_455  S
C703        C708   1.408       .  A
C703        C712   1.400       .  A
N704        O719   1.262       .  A
N704        O720   1.261       .  A
N706       C1734   1.428       .  S
N706        O717   1.262       .  A
N706        O718   1.262       .  A
H707       C1729   1.084       .  S
C708        C709   1.401       .  A
C708       N1745   1.427   1_455  S
C709        C710   1.407       .  A
C709       H1746   1.083   1_455  S
C710        C711   1.422       .  A
C711        C712   1.403       .  A
C711        N715   1.430       .  S
C712        H716   1.084       .  S
N713       C1740   1.428       .  S
N713        O723   1.262       .  A
N713       O1756   1.261       .  A
H714       C1741   1.083       .  S
N715        O721   1.262       .  A
N715        O722   1.262       .  A
O724       N1745   1.261       .  A
C725        C730   1.397       .  A
C725        H735   1.084       .  S
C726        C731   1.481       .  S
C726        C727   1.409       .  A
C727        C728   1.402       .  A
C727        N732   1.428       .  S
C728        H733   1.084       .  S
C729        C730   1.415       .  A
C730        N734   1.429       .  S
C731        C736   1.410       .  A
C731        C740   1.401       .  A
N732        O747   1.262       .  A
N732        O748   1.261       .  A
N734        O745   1.262       .  A
N734        O746   1.262       .  A
C736        C737   1.401       .  A
C736        N741   1.428       .  S
C737        C738   1.402       .  A
C737        H742   1.084       .  S
C738        C739   1.414       .  A
C739        C740   1.400       .  A
C739        N743   1.429       .  S
C740        H744   1.084       .  S
N743        O749   1.262       .  A
N743        O750   1.262       .  A
C753        C754   1.401       .  A
C753        C758   1.404       .  A
C753        H763   1.084       .  S
C754        C759   1.476       .  S
C755        C756   1.393       .  A
C755        N760   1.430       .  S
C756        C757   1.406       .  A
C756        H761   1.083   1_545  S
C758        N762   1.429       .  S
C759       C1796   1.407       .  A
C759        C768   1.398       .  A
N760        O775   1.262       .  A
N760        O776   1.262   1_545  A
N762        O773   1.262       .  A
N762        O774   1.262       .  A
C764       C1791   1.409       .  A
C764        C765   1.398       .  A
C764        N769   1.429       .  S
C765       C1798   1.406       .  A
C765        H770   1.084       .  S
C766       C1797   1.408       .  A
C766        C767   1.412       .  A
C767        C768   1.397       .  A
C767        N771   1.425       .  S
C768        H772   1.084       .  S
N769        O779   1.262       .  A
N771        O777   1.262       .  A
N771        O778   1.261       .  A
C781        C782   1.399       .  A
C781        C786   1.398       .  A
C781       H1823   1.084       .  S
C782        C787   1.475       .  S
C782        C783   1.405       .  A
C783        C784   1.399       .  A
C783        N788   1.427       .  S
C784        C785   1.405       .  A
C784        H789   1.084       .  S
C785        C786   1.416       .  A
C786       N1822   1.429   1_455  S
C787        C792   1.405       .  A
C787        C796   1.401       .  A
N788        O803   1.262       .  A
N788        O804   1.262       .  A
N790       C1818   1.429       .  S
N790        O801   1.262       .  A
N790        O802   1.262       .  A
H791       C1813   1.084       .  S
C792        C793   1.393       .  A
C792        N797   1.427       .  S
C793        C794   1.403       .  A
C793        H798   1.083       .  S
C794        C795   1.418       .  A
C795        C796   1.404       .  A
C795        N799   1.429   1_455  S
C796        H800   1.084   1_455  S
N797       O1839   1.262       .  A
N797        O808   1.262       .  A
N799        O805   1.262       .  A
N799        O806   1.262       .  A
O807       N1829   1.262       .  A
C809        C810   1.403       .  A
C809        C814   1.400       .  A
C809        H819   1.084       .  S
C810        C815   1.483       .  S
C810       C1843   1.411   1_455  A
C811       C1842   1.412       .  A
C811        C812   1.401       .  A
C811        N816   1.428       .  S
C812       C1845   1.403       .  A
C812        H817   1.084       .  S
C813       C1844   1.404   1_455  A
C813        C814   1.411       .  A
C814        N818   1.427       .  S
C815        C820   1.411       .  A
C815       C1340   1.399       .  A
N818        O829   1.261       .  A
N818        O830   1.261       .  A
C820        C821   1.403       .  A
C820        N825   1.428       .  S
C821        H826   1.083       .  S
C822        C823   1.417       .  A
C823       C1856   1.397       .  A
C823       N1859   1.429   1_545  S
C824       C1331   1.401       .  A
C824       C1855   1.398       .  A
C824        H828   1.084       .  S
N825        O835   1.262       .  A
N825        O836   1.261   1_455  A
N827       C1855   1.430   1_565  S
N827        O833   1.262   1_565  A
N827        O834   1.262       .  A
C837        C838   1.403       .  A
C837        C842   1.405       .  A
C837        H847   1.084       .  S
C838        C843   1.476       .  S
C838        C839   1.406       .  A
C839        C840   1.389       .  A
C839        N844   1.429       .  S
C840        C841   1.402       .  A
C840        H845   1.082       .  S
C841        C842   1.415       .  A
C842        N846   1.428       .  S
C843        C848   1.406       .  A
C843        C852   1.401       .  A
N844        O859   1.262       .  A
N844        O860   1.262       .  A
N846        O857   1.262       .  A
N846        O858   1.262       .  A
C848        C849   1.396       .  A
C848        N853   1.428       .  S
C849        H854   1.084       .  S
C850        C851   1.413       .  A
C851        N855   1.429       .  S
N853        O863   1.262       .  A
N853        O864   1.262       .  A
N855        O861   1.262       .  A
N855        O862   1.262       .  A
C865        C866   1.401       .  A
C865        C870   1.404       .  A
C865        H875   1.084       .  S
C866        C871   1.478       .  S
C866        C867   1.410       .  A
C867        C868   1.393       .  A
C867        N872   1.429       .  S
C868        C869   1.401       .  A
C868        H873   1.084       .  S
C869        C870   1.416       .  A
C870        N874   1.429       .  S
C871        C876   1.410       .  A
C871        C880   1.399       .  A
N872        O887   1.262       .  A
N872        O888   1.262       .  A
N874        O885   1.262       .  A
N874        O886   1.262       .  A
C876        C877   1.401       .  A
C876        N881   1.428       .  S
C877        C878   1.404       .  A
C877        H882   1.084       .  S
C878        C879   1.414       .  A
C879        C880   1.395       .  A
C879        N883   1.429       .  S
C880        H884   1.084       .  S
N881        O891   1.262       .  A
N881        O892   1.262       .  A
N883        O889   1.262       .  A
N883        O890   1.262       .  A
C893        C894   1.400       .  A
C893        C898   1.401       .  A
C893        H903   1.084       .  S
C894        C899   1.476       .  S
C894        C895   1.408       .  A
C895        C896   1.396       .  A
C895        N900   1.428       .  S
C896        C897   1.404       .  A
C896        H901   1.084       .  S
C897        C898   1.416       .  A
C898        N902   1.429       .  S
C899        C904   1.409       .  A
C899        C908   1.399       .  A
N900        O915   1.262       .  A
N900        O916   1.262       .  A
N902        O913   1.262       .  A
N902        O914   1.262       .  A
C904        C905   1.400       .  A
C904        N909   1.428       .  S
C905        C906   1.402       .  A
C905        H910   1.084       .  S
C906        C907   1.414       .  A
C907        C908   1.398       .  A
C907        N911   1.429       .  S
C908        H912   1.084       .  S
N909        O919   1.262       .  A
N909        O920   1.262       .  A
N911        O917   1.262       .  A
N911        O918   1.261       .  A
C921        C922   1.402       .  A
C921        C926   1.399       .  A
C921        H931   1.084       .  S
C922        C927   1.484       .  S
C922        C923   1.410       .  A
C923        C924   1.402       .  A
C923        N928   1.427       .  S
C924        C925   1.402       .  A
C924        H929   1.084       .  S
C925        C926   1.412       .  A
C926        N930   1.429       .  S
C927        C932   1.408       .  A
C927        C936   1.399       .  A
N928        O943   1.262       .  A
N928        O944   1.262       .  A
N930        O941   1.262       .  A
N930        O942   1.262       .  A
C932        C933   1.405       .  A
C932        N937   1.431       .  S
C933        C934   1.410       .  A
C933        H938   1.084       .  S
C934        C935   1.417       .  A
C935        C936   1.404       .  A
C935        N939   1.427       .  S
C936        H940   1.084       .  S
N937        O947   1.262       .  A
N937        O948   1.262   1_455  A
N939        O945   1.262       .  A
N939        O946   1.262       .  A
C949        C950   1.403       .  A
C949        C954   1.399       .  A
C949        H959   1.082   1_455  S
C950        C955   1.491       .  S
C950        C951   1.417       .  A
C951        C952   1.398       .  A
C951        N956   1.429       .  S
C952        C953   1.399       .  A
C952        H957   1.084       .  S
C953        C954   1.412       .  A
C954        N958   1.428       .  S
C955        C960   1.414       .  A
C955        C964   1.404       .  A
N956        O971   1.262       .  A
N956        O972   1.262       .  A
N958       O2001   1.262   1_455  A
N958        O970   1.262   1_455  A
C960        C961   1.395       .  A
C960        N965   1.429       .  S
C961        C962   1.405       .  A
C961        H966   1.084       .  S
C962        C963   1.417       .  A
C963        C964   1.402       .  A
C963        N967   1.428       .  S
C964        H968   1.083       .  S
N965        O975   1.262   1_455  A
N965        O976   1.262       .  A
N967        O973   1.262       .  A
N967        O974   1.262       .  A
O969       N1990   1.262       .  A
C977        C978   1.403       .  A
C977        C982   1.405       .  A
C977       H2019   1.084       .  S
C978        C983   1.484       .  S
C978        C979   1.409       .  A
C979        C980   1.397       .  A
C979        N984   1.430       .  S
C980        C981   1.408       .  A
C980        H985   1.084       .  S
C981        C982   1.416       .  A
C982       N2018   1.428       .  S
C983        C988   1.412       .  A
C983        C992   1.404       .  A
N984        O999   1.262       .  A
N984       O1000   1.261       .  A
N986       C2014   1.428       .  S
N986        O997   1.262       .  A
N986        O998   1.262       .  A
H987       C2009   1.084       .  S
C988       N1509   1.429       .  S
C989       H2026   1.084   1_545  S
C990        C991   1.411       .  A
C991        C992   1.402       .  A
C991        N995   1.429       .  S
C992        H996   1.084       .  S
N993       C1504   1.429       .  S
N993       O1003   1.262       .  A
H994       C2021   1.084   1_565  S
N995       O1001   1.262       .  A
N995       O1002   1.262       .  A
C1005      C1006   1.406       .  A
C1005      C1010   1.411       .  A
C1005      H1015   1.083       .  S
C1006      C1011   1.494       .  S
C1006      C1007   1.411       .  A
C1007      C1008   1.397       .  A
C1007      N1012   1.429       .  S
C1008      C1009   1.405       .  A
C1008      H1013   1.084       .  S
C1009      C1010   1.415       .  A
C1010      N1014   1.428       .  S
C1011      C1016   1.414       .  A
C1011      C1020   1.402       .  A
N1012      O1027   1.262       .  A
N1012      O1028   1.262       .  A
N1014      O1025   1.261       .  A
N1014      O1026   1.262       .  A
C1016      C1017   1.407       .  A
C1016      N1021   1.428       .  S
C1017      C1018   1.405       .  A
C1017      H1022   1.084       .  S
C1019      N1023   1.430   1_545  S
C1020      H1024   1.084       .  S
N1021      O1031   1.262       .  A
N1021      O1032   1.262       .  A
N1023      O1029   1.262   1_455  A
N1023      O2062   1.262       .  A
O1030      N2055   1.262       .  A
C1033      N1034   1.357       .  A
C1033      N1038   1.358       .  A
C1033      C1497   1.492       .  S
N1034      C1035   1.361       .  A
C1035      N1036   1.365       .  A
C1035      C1049   1.464       .  S
N1036      C1037   1.362       .  A
C1037      N1038   1.359       .  A
C1037      C1525   1.492       .  S
C1039      N1040   1.361       .  A
C1039      N1044   1.356       .  A
C1039      C1441   1.474       .  S
N1040      C1041   1.360       .  A
C1041      N1042   1.358       .  A
C1041      C1045   1.465       .  S
N1042      C1043   1.359       .  A
C1043      N1044   1.356       .  A
C1043      C1469   1.470       .  S
C1045      N1046   1.359       .  A
C1045      N1050   1.362       .  A
N1046      C1047   1.357       .  A
C1047      N1048   1.355       .  A
C1047      C1055   1.463       .  S
N1048      C1049   1.357       .  A
C1049      N1050   1.361       .  A
C1051      N1052   1.353       .  A
C1051      N1056   1.361       .  A
C1051      C1394   1.477       .  S
N1052      C1053   1.353       .  A
C1053      N1054   1.359       .  A
C1053      C1422   1.470       .  S
N1054      C1055   1.358       .  A
C1055      N1056   1.359       .  A
Zr1057     O1058   2.439       .  S
Zr1057     O1059   2.430       .  S
Zr1057     O1060   2.433       .  S
Zr1057     O1063   2.419       .  S
Zr1057     O1065   2.376       .  S
Zr1057     O1066   2.373       .  S
Zr1057     O1067   2.399       .  S
Zr1057     O1068   2.405       .  S
O1058      H1114   0.990       .  S
O1058      H1122   0.990       .  S
O1060      C1081   1.287       .  A
O1061     Zr1071   2.458   1_556  S
O1061      C1080   1.291       .  A
O1062     Zr1070   2.429       .  S
O1062      C1081   1.283       .  A
O1063      C1080   1.283       .  A
O1064     Zr1072   2.411       .  S
O1064      C1079   1.279       .  A
O1065     Zr1070   2.397       .  S
O1066     Zr1071   2.381   1_556  S
O1066      H1101   0.975       .  S
O1067     Zr1070   2.399       .  S
O1067     Zr1087   2.392   1_556  S
O1067      H1104   0.967       .  S
O1068     Zr1071   2.397   1_556  S
O1068     Zr1087   2.404   1_556  S
Zr1069     O1088   2.415       .  S
Zr1069     O1096   2.420       .  S
Zr1069     O1084   2.415       .  S
Zr1069     O1075   2.397       .  S
Zr1069     O1076   2.394       .  S
Zr1069     O1077   2.377       .  S
Zr1069     O1078   2.384       .  S
Zr1070     O1089   2.436       .  S
Zr1070     O1082   2.433       .  S
Zr1070     O1083   2.443   1_556  S
Zr1070     O1076   2.393   1_556  S
Zr1070     O1077   2.386   1_556  S
Zr1071     O1589   2.435       .  S
Zr1071     O1097   2.449       .  S
Zr1071     O1075   2.397       .  S
Zr1071     O1078   2.392       .  S
Zr1072     O1098   2.434       .  S
Zr1072     O1099   2.434   1_556  S
Zr1072     O1074   2.436       .  S
O1073     Zr1587   2.435   1_545  S
O1073      H1110   0.990   1_554  S
O1074      H1105   0.990       .  S
O1074      H1119   0.990       .  S
O1077     Zr1087   2.371       .  S
O1078     Zr1087   2.375       .  S
O1078      H1103   0.958       .  S
C1079      C1413   1.474       .  S
C1080      C2050   1.488       .  S
C1081      C1478   1.489       .  S
O1083      C1085   1.287       .  A
O1084      C1085   1.282       .  A
C1085      C1301   1.481       .  S
O1086     Zr1087   2.435   1_556  S
O1086      H1631   0.990       .  S
Zr1087     O1090   2.437   1_554  S
Zr1087     O1607   2.439       .  S
Zr1087     O1092   2.432       .  S
O1088      C1093   1.280       .  A
O1089      H1106   0.990   1_556  S
O1089      H1121   0.990   1_556  S
O1090      H1107   0.990   1_556  S
O1091     Zr1603   2.443   1_545  S
O1091      H1111   0.990       .  S
O1091      H1120   0.989       .  S
O1092      C1093   1.285       .  A
C1093      C1366   1.485       .  S
O1094      H1113   0.990   1_455  S
O1094      H1117   0.990   1_455  S
O1095      H1116   0.990   1_454  S
O1096      C1100   1.281       .  A
O1097      C1100   1.289       .  A
O1098      H1108   0.990   1_556  S
O1099      H1112   0.990       .  S
C1100      C1338   1.491       .  S
H1115      O1602   0.990   1_545  S
Zr1123     O1125   2.423       .  S
Zr1123     O1126   2.423       .  S
Zr1123     O1129   2.428       .  S
Zr1123     O1131   2.380       .  S
Zr1123     O1132   2.381       .  S
Zr1123     O1133   2.399       .  S
Zr1123     O1134   2.396       .  S
O1124      H1188   0.990   1_455  S
O1125      C1145   1.282       .  A
O1126      C1147   1.285       .  A
O1127     Zr1137   2.447       .  S
O1127      C1146   1.288       .  A
O1128     Zr1136   2.435       .  S
O1128      C1147   1.284       .  A
O1129      C1146   1.284       .  A
O1130     Zr1138   2.441       .  S
O1130      C1145   1.286       .  A
O1131     Zr1136   2.395       .  S
O1131     Zr1138   2.370       .  S
O1132     Zr1137   2.390       .  S
O1132     Zr1138   2.372       .  S
O1132      H1167   0.966       .  S
O1133     Zr1136   2.406       .  S
O1134     Zr1137   2.396       .  S
Zr1135     O1160   2.439       .  S
Zr1135     O1154   2.432       .  S
Zr1135     O1162   2.450       .  S
Zr1135     O1150   2.444       .  S
Zr1135     O1141   2.402       .  S
Zr1135     O1142   2.406       .  S
Zr1135     O1143   2.380       .  S
Zr1135     O1144   2.379       .  S
Zr1136     O1664   2.436       .  S
Zr1136     O1149   2.445       .  S
Zr1136     O1142   2.396       .  S
Zr1136     O1143   2.395       .  S
Zr1137     O1139   2.434       .  S
Zr1137     O1161   2.436       .  S
Zr1137     O1163   2.450       .  S
Zr1137     O1141   2.392       .  S
Zr1137     O1144   2.391       .  S
Zr1138     O1164   2.436       .  S
Zr1138     O1165   2.436       .  S
Zr1138     O1656   2.437       .  S
Zr1138     O1141   2.402       .  S
Zr1138     O1142   2.398       .  S
O1139      H1176   0.990       .  S
O1140     Zr1654   2.438   1_545  S
O1140      H1171   0.990       .  S
O1140      H1185   0.990       .  S
O1142      H1168   0.978       .  S
O1144      H1169   0.975       .  S
C1145      C1245   1.490       .  S
C1146      C1217   1.485       .  S
C1147      C1273   1.491       .  S
O1148     Zr1652   2.436   1_545  S
O1148      H1184   0.990       .  S
O1149      C1151   1.286       .  A
O1150      C1151   1.287       .  A
C1151      C2022   1.487       .  S
O1152     Zr1153   2.435       .  S
O1152      H1181   0.990       .  S
Zr1153     O1156   2.435       .  S
Zr1153     O1157   2.438       .  S
Zr1153     O1158   2.419       .  S
O1155      H1187   0.990       .  S
O1156      H1173   0.990       .  S
O1157      H1177   0.990       .  S
O1157      H1186   0.990       .  S
O1158      C1159   1.280       .  A
C1159      C1385   1.482       .  S
O1160      H1179   0.990       .  S
O1160      H1183   0.990       .  S
O1161      H1175   0.990       .  S
O1161      H1182   0.990       .  S
O1162      C1166   1.289       .  A
O1163      C1166   1.288       .  A
O1164      H1174   0.990       .  S
O1165      H1694   0.990       .  S
C1166      C1450   1.497       .  S
H1178      O1681   0.990       .  S
C1189      N1190   1.360       .  A
C1189      N1194   1.359       .  A
C1189      C1357   1.479       .  S
N1190      C1191   1.354       .  A
C1191      N1192   1.357       .  A
C1191      C1254   1.480       .  S
N1192      C1193   1.357       .  A
C1193      N1194   1.360       .  A
C1193      C1203   1.458       .  S
C1195      N1196   1.362       .  A
C1195      N1200   1.359       .  A
C1195      C1329   1.477       .  S
N1196      C1197   1.362       .  A
C1197      N1198   1.359       .  A
C1197      C1282   1.481       .  S
C1199      C1201   1.460       .  S
C1201      N1202   1.360       .  A
C1201      N1206   1.357       .  A
N1202      C1203   1.359       .  A
C1203      N1204   1.355       .  A
N1204      C1205   1.354       .  A
C1205      N1206   1.356       .  A
C1207      N1208   1.356       .  A
C1207      N1212   1.363       .  A
C1207      C1310   1.492       .  S
N1208      C1209   1.357       .  A
C1209      N1210   1.361       .  A
N1210      C1211   1.364       .  A
C1211      N1212   1.357       .  A
C1211      C1226   1.502       .  S
C1213      C1214   1.403       .  A
C1213      C1218   1.400       .  A
C1214      C1219   1.488       .  S
C1214      C1215   1.411       .  A
C1215      C1216   1.403       .  A
C1215      N1220   1.428       .  S
C1216      C1217   1.405       .  A
C1216      H1221   1.084       .  S
C1217      C1218   1.414       .  A
C1219      C1224   1.409       .  A
C1219      C1228   1.400       .  A
N1220      O1235   1.262       .  A
N1220      O1236   1.261       .  A
N1222      O1233   1.262   1_455  A
N1222      O1234   1.262       .  A
C1224      C1225   1.404       .  A
C1225      C1226   1.409       .  A
C1226      C1227   1.423       .  A
C1227      C1228   1.402       .  A
C1227      N1231   1.429       .  S
C1228      H1232   1.085       .  S
N1229      O1239   1.262       .  A
N1231      O1237   1.262       .  A
N1231      O1238   1.262       .  A
C1241      C1758   1.401       .  A
C1241      C1246   1.401       .  A
C1241      H1251   1.084       .  S
C1242      C1247   1.479       .  S
C1242      C1757   1.401   1_545  A
C1242      C1243   1.410       .  A
C1243      C1244   1.401       .  A
C1243      N1248   1.428       .  S
C1244      C1761   1.406   1_545  A
C1244      H1249   1.084       .  S
C1245      C1760   1.407       .  A
C1245      C1246   1.418       .  A
C1246      N1250   1.430       .  S
C1247      C1252   1.409       .  A
C1247      C1256   1.402       .  A
N1248      O1263   1.262       .  A
N1248      O1264   1.261       .  A
N1250      O1261   1.262       .  A
N1250      O1262   1.262       .  A
C1252      C1253   1.400       .  A
C1252      N1257   1.428       .  S
C1253      C1254   1.403       .  A
C1253      H1258   1.084       .  S
C1254      C1255   1.414       .  A
C1255      C1256   1.399       .  A
C1255      N1259   1.429       .  S
C1256      H1260   1.084       .  S
N1257      O1783   1.262       .  A
N1257      O1784   1.262       .  A
N1259      O1265   1.262       .  A
N1259      O1266   1.262       .  A
O1267      N1773   1.262       .  A
O1268      N1773   1.261       .  A
C1269      C1270   1.401       .  A
C1269      C1274   1.406       .  A
C1269      H1279   1.084       .  S
C1270      C1275   1.480       .  S
C1270      C1787   1.407       .  A
C1271      C1786   1.409       .  A
C1271      C1272   1.392       .  A
C1271      N1276   1.430       .  S
C1272      C1273   1.408       .  A
C1272      H1277   1.083       .  S
C1273      C1790   1.419       .  A
C1274      C1789   1.422       .  A
C1274      N1278   1.429       .  S
C1275      C1284   1.400       .  A
N1276      O1291   1.262       .  A
N1276      O1292   1.262       .  A
N1278      O1289   1.262       .  A
N1278      O1290   1.262       .  A
C1280      C1281   1.400       .  A
C1280      N1285   1.429   1_455  S
C1281      H1286   1.084   1_455  S
C1282      C1283   1.411       .  A
C1283      C1284   1.398       .  A
C1283      N1287   1.426       .  S
C1284      H1288   1.084       .  S
N1285      O1295   1.262       .  A
N1285      O1812   1.262       .  A
N1287      O1293   1.262       .  A
N1287      O1294   1.261       .  A
O1296      N1801   1.262       .  A
C1297      C1298   1.398       .  A
C1297      C1302   1.393       .  A
C1298      C1303   1.481       .  S
C1298      C1299   1.411       .  A
C1299      C1300   1.403       .  A
C1299      N1304   1.428       .  S
C1300      C1301   1.405       .  A
C1300      H1305   1.084       .  S
C1301      C1302   1.414       .  A
C1303      C1308   1.409       .  A
C1303      C1312   1.401       .  A
N1304      O1319   1.262       .  A
N1304      O1320   1.262       .  A
N1306      O1317   1.262   1_655  A
N1306      O1318   1.262       .  A
C1308      C1309   1.391       .  A
C1308      N1313   1.429       .  S
C1309      C1310   1.403       .  A
C1309      H1314   1.081       .  S
C1310      C1311   1.422       .  A
C1311      C1312   1.406       .  A
C1311      N1315   1.429       .  S
C1312      H1316   1.084       .  S
N1313      O1324   1.261       .  A
N1315      O1321   1.262       .  A
N1315      O1322   1.262       .  A
C1325      C1326   1.402       .  A
C1325      C1330   1.399       .  A
C1325      H1335   1.084       .  S
C1326      C1331   1.482       .  S
C1327      C1328   1.401       .  A
C1327      N1332   1.428       .  S
C1328      H1333   1.084       .  S
C1329      C1330   1.408       .  A
C1330      N1334   1.427       .  S
C1331      C1336   1.410       .  A
N1332      O1863   1.262   1_545  A
N1332      O1864   1.262       .  A
N1334      O1345   1.260       .  A
N1334      O1346   1.262       .  A
C1336      C1337   1.399       .  A
C1336      N1341   1.427       .  S
C1337      C1854   1.405       .  A
C1337      H1342   1.084       .  S
C1338      C1853   1.407       .  A
C1338      C1339   1.419       .  A
C1340      H1344   1.085       .  S
N1341      O1351   1.262       .  A
N1341      O1352   1.262       .  A
N1343      O1349   1.262       .  A
N1343      O1350   1.262       .  A
O1347      N1848   1.262       .  A
O1348      N1848   1.261       .  A
C1353      C1354   1.403       .  A
C1353      C1358   1.403       .  A
C1353      H1363   1.084       .  S
C1354      C1359   1.478       .  S
C1354      C1355   1.409       .  A
C1355      C1356   1.391       .  A
C1355      N1360   1.429       .  S
C1356      C1357   1.401       .  A
C1356      H1361   1.083       .  S
C1357      C1358   1.414       .  A
C1358      N1362   1.428       .  S
C1359      C1364   1.408       .  A
C1359      C1368   1.401   1_545  A
N1360      O1375   1.262       .  A
N1360      O1376   1.262       .  A
N1362      O1373   1.262       .  A
N1362      O1374   1.262       .  A
C1364      C1365   1.396       .  A
C1364      N1369   1.428       .  S
C1365      C1882   1.407   1_545  A
C1365      H1370   1.084       .  S
C1366      C1881   1.406       .  A
C1366      C1367   1.417       .  A
C1367      C1884   1.397       .  A
C1367      N1371   1.430       .  S
C1368      C1883   1.398       .  A
C1368      H1888   1.084       .  S
N1369      O1379   1.262       .  A
N1369      O1380   1.262       .  A
N1371      O1377   1.262       .  A
N1371      O1378   1.262       .  A
H1372      C1884   1.084       .  S
C1381      C1382   1.402       .  A
C1381      C1386   1.403       .  A
C1381      H1391   1.084       .  S
C1382      C1387   1.480       .  S
C1382      C1383   1.410       .  A
C1383      C1384   1.394       .  A
C1383      N1388   1.429       .  S
C1384      C1385   1.402       .  A
C1384      H1389   1.084       .  S
C1385      C1386   1.416       .  A
C1386      N1390   1.429       .  S
C1387      C1392   1.411       .  A
C1387      C1396   1.400       .  A
N1388      O1403   1.262       .  A
N1388      O1404   1.262       .  A
N1390      O1401   1.262       .  A
N1390      O1402   1.262       .  A
C1392      C1393   1.400       .  A
C1392      N1397   1.428       .  S
C1393      C1394   1.402       .  A
C1393      H1398   1.084       .  S
C1394      C1395   1.414       .  A
C1395      C1396   1.395       .  A
C1395      N1399   1.430       .  S
C1396      H1400   1.084       .  S
N1397      O1407   1.262       .  A
N1397      O1408   1.262       .  A
N1399      O1405   1.262       .  A
N1399      O1406   1.262       .  A
C1409      C1410   1.398       .  A
C1409      C1414   1.396       .  A
C1409      H1419   1.084       .  S
C1410      C1415   1.469       .  S
C1410      C1411   1.409       .  A
C1411      C1412   1.394       .  A
C1411      N1416   1.429       .  S
C1412      C1413   1.403       .  A
C1412      H1417   1.084       .  S
C1413      C1414   1.415       .  A
C1414      N1418   1.429       .  S
C1415      C1420   1.409       .  A
C1415      C1424   1.397       .  A
N1416      O1431   1.262       .  A
N1416      O1432   1.262       .  A
N1418      O1429   1.262       .  A
N1418      O1430   1.262       .  A
C1420      C1421   1.398       .  A
C1420      N1425   1.428       .  S
C1421      C1422   1.402       .  A
C1421      H1426   1.084       .  S
C1422      C1423   1.412       .  A
C1423      C1424   1.393       .  A
C1423      N1427   1.429       .  S
C1424      H1428   1.084       .  S
N1425      O1435   1.262       .  A
N1425      O1436   1.262       .  A
N1427      O1433   1.262       .  A
N1427      O1434   1.261       .  A
C1437      C1438   1.402       .  A
C1437      C1442   1.398       .  A
C1437      H1447   1.084       .  S
C1438      C1443   1.484       .  S
C1438      C1439   1.410       .  A
C1439      C1440   1.403       .  A
C1439      N1444   1.427       .  S
C1440      C1441   1.402       .  A
C1440      H1445   1.084       .  S
C1441      C1442   1.411       .  A
C1442      N1446   1.429       .  S
C1443      C1448   1.407       .  A
C1443      C1452   1.398       .  A
N1444      O1459   1.262       .  A
N1444      O1460   1.262       .  A
N1446      O1457   1.262       .  A
N1446      O1458   1.262       .  A
C1448      C1449   1.405       .  A
C1448      N1453   1.431       .  S
C1449      C1450   1.410       .  A
C1449      H1454   1.084       .  S
C1450      C1451   1.419       .  A
C1451      C1452   1.405       .  A
C1451      N1455   1.427       .  S
C1452      H1456   1.084       .  S
N1453      O1463   1.262       .  A
N1453      O1464   1.262       .  A
N1455      O1461   1.262       .  A
N1455      O1462   1.262       .  A
C1465      C1466   1.402       .  A
C1465      C1470   1.398       .  A
C1465      H1475   1.083       .  S
C1466      C1471   1.483       .  S
C1466      C1467   1.415       .  A
C1467      C1468   1.398       .  A
C1467      N1472   1.429       .  S
C1468      C1469   1.399       .  A
C1468      H1473   1.084       .  S
C1469      C1470   1.409       .  A
C1470      N1474   1.428       .  S
C1471      C1476   1.412       .  A
C1471      C1480   1.400       .  A
N1472      O1487   1.262       .  A
N1472      O1488   1.262       .  A
N1474      O1486   1.262       .  A
C1476      C1477   1.396       .  A
C1476      N1481   1.430       .  S
C1477      C1478   1.406       .  A
C1477      H1482   1.084       .  S
C1478      C1479   1.418       .  A
C1479      C1480   1.400       .  A
C1479      N1483   1.428       .  S
C1480      H1484   1.083       .  S
N1481      O1491   1.262       .  A
N1481      O1492   1.262       .  A
N1483      O1489   1.262       .  A
N1483      O1490   1.262       .  A
C1493      C1494   1.401       .  A
C1493      C1498   1.403       .  A
C1494      C1499   1.482       .  S
C1494      C1495   1.409       .  A
C1495      C1496   1.398       .  A
C1495      N1500   1.429       .  S
C1496      C1497   1.408       .  A
C1496      H1501   1.084       .  S
C1497      C1498   1.417       .  A
C1499      C1504   1.410       .  A
C1499      C1508   1.403       .  A
N1500      O1515   1.262       .  A
N1500      O1516   1.261       .  A
N1502      O1513   1.262       .  A
N1502      O1514   1.262       .  A
C1504      C2021   1.398       .  A
C1505      C2020   1.402       .  A
C1505      C2022   1.402       .  A
C1506      C1667   1.476       .  S
C1506      C2021   1.402       .  A
C1506      C1507   1.412       .  A
C1507      C1508   1.403       .  A
C1507      N1511   1.429       .  S
C1508      H1512   1.084       .  S
N1509      O1519   1.262   1_455  A
N1509      O2036   1.261       .  A
N1511      O1517   1.262       .  A
N1511      O1518   1.262       .  A
O1520      N2025   1.261   1_565  A
C1521      C1522   1.405       .  A
C1521      C1526   1.410       .  A
C1521      H1531   1.084       .  S
C1522      C1527   1.491       .  S
C1522      C1523   1.410       .  A
C1523      C1524   1.398       .  A
C1523      N1528   1.429       .  S
C1524      C1525   1.405       .  A
C1524      H1529   1.084       .  S
C1525      C1526   1.416       .  A
C1526      N1530   1.428       .  S
C1527      C1532   1.412       .  A
C1527      C1536   1.402       .  A
N1528      O1543   1.262       .  A
N1528      O1544   1.262       .  A
N1530      O1541   1.262       .  A
N1530      O1542   1.262       .  A
C1532      C1533   1.405       .  A
C1532      N1537   1.427       .  S
C1533      C1534   1.404       .  A
C1533      H1538   1.084       .  S
C1534      C1596   1.489   1_545  S
C1534      C2051   1.417       .  A
C1535      C2050   1.416       .  A
C1535      C2052   1.398       .  A
C1535      N1539   1.430       .  S
C1536      C2051   1.402       .  A
C1536      H1540   1.084       .  S
N1537      O1547   1.262       .  A
N1537      O1548   1.262       .  A
N1539      O1545   1.262       .  A
C1549      N1550   1.360       .  A
C1549      N1554   1.359       .  A
C1549      C2013   1.500       .  S
N1550      C1551   1.364       .  A
C1551      N1552   1.365       .  A
C1551      C1565   1.466       .  S
N1552      C1553   1.361       .  A
C1553      N1554   1.359       .  A
C1553      C2041   1.494       .  S
C1555      N1556   1.363       .  A
C1555      N1560   1.354       .  A
C1555      C1957   1.476       .  S
N1556      C1557   1.361       .  A
C1557      N1558   1.357       .  A
C1557      C1561   1.469       .  S
N1558      C1559   1.359       .  A
C1559      N1560   1.354       .  A
C1559      C1985   1.467       .  S
C1561      N1562   1.362       .  A
C1561      N1566   1.363       .  A
N1562      C1563   1.359       .  A
C1563      N1564   1.355       .  A
C1563      C1571   1.465       .  S
N1564      C1565   1.356       .  A
C1565      N1566   1.361       .  A
C1567      N1568   1.353       .  A
C1567      N1572   1.360       .  A
C1567      C1910   1.474       .  S
N1568      C1569   1.353       .  A
C1569      N1570   1.361       .  A
C1569      C1938   1.474       .  S
N1570      C1571   1.360       .  A
C1571      N1572   1.359       .  A
Zr1573     O1574   2.438       .  S
Zr1573     O1575   2.422       .  S
Zr1573     O1576   2.426       .  S
Zr1573     O1579   2.421       .  S
Zr1573     O1581   2.376       .  S
Zr1573     O1582   2.375       .  S
Zr1573     O1583   2.399       .  S
Zr1573     O1584   2.402       .  S
O1574      H1630   0.990       .  S
O1574      H1638   0.990       .  S
O1576      C1597   1.286       .  A
O1577     Zr1587   2.464   1_546  S
O1577      C1596   1.292   1_545  A
O1578     Zr1586   2.430   1_556  S
O1578      C1597   1.283       .  A
O1579      C1596   1.283       .  A
O1580     Zr1588   2.426       .  S
O1580      C1595   1.281       .  A
O1581     Zr1586   2.395   1_556  S
O1582     Zr1587   2.381   1_556  S
O1582      H1617   0.980       .  S
O1583     Zr1586   2.398   1_556  S
O1583     Zr1603   2.398   1_556  S
O1583      H1620   0.968       .  S
O1584     Zr1587   2.390   1_556  S
O1584     Zr1603   2.397   1_556  S
Zr1585     O1604   2.420       .  S
Zr1585     O1612   2.408       .  S
Zr1585     O1600   2.415       .  S
Zr1585     O1591   2.399       .  S
Zr1585     O1592   2.395       .  S
Zr1585     O1593   2.376       .  S
Zr1585     O1594   2.383       .  S
Zr1586     O1605   2.437       .  S
Zr1586     O1598   2.433       .  S
Zr1586     O1599   2.434       .  S
Zr1586     O1592   2.393       .  S
Zr1586     O1593   2.385       .  S
Zr1587     O1613   2.448       .  S
Zr1587     O1591   2.398       .  S
Zr1587     O1594   2.387       .  S
Zr1588     O1614   2.435       .  S
Zr1588     O1615   2.434   1_556  S
Zr1588     O1590   2.437       .  S
O1589      H1626   0.990       .  S
O1590      H1621   0.990   1_556  S
O1590      H1635   0.990       .  S
O1593     Zr1603   2.377       .  S
O1594     Zr1603   2.370       .  S
O1594      H1619   0.956       .  S
C1595      C1929   1.480       .  S
C1597      C1994   1.488       .  S
O1599      C1601   1.286       .  A
O1600      C1601   1.281       .  A
C1601      C1817   1.480       .  S
O1602     Zr1603   2.437   1_556  S
Zr1603     O1606   2.434       .  S
Zr1603     O1608   2.427       .  S
O1604      C1609   1.281       .  A
O1605      H1622   0.990       .  S
O1605      H1637   0.990   1_554  S
O1606      H1623   0.990       .  S
O1607      H1627   0.990       .  S
O1607      H1636   0.989       .  S
O1608      C1609   1.285       .  A
C1609      C1882   1.483       .  S
O1610      H1629   0.989       .  S
O1610      H1633   0.990   1_455  S
O1611      H1632   0.990   1_455  S
O1612      C1616   1.280       .  A
O1613      C1616   1.290       .  A
O1614      H1624   0.990       .  S
O1615      H1628   0.990       .  S
C1616      C1854   1.487   1_565  S
Zr1639     O1641   2.419       .  S
Zr1639     O1642   2.438       .  S
Zr1639     O1645   2.433       .  S
Zr1639     O1647   2.380       .  S
Zr1639     O1648   2.384       .  S
Zr1639     O1649   2.398       .  S
Zr1639     O1650   2.396       .  S
O1640      H1704   0.990   1_455  S
O1641      C1661   1.281       .  A
O1642      C1663   1.288   1_565  A
O1643     Zr1653   2.448       .  S
O1643      C1662   1.289       .  A
O1644     Zr1652   2.429   1_545  S
O1644      C1663   1.282       .  A
O1645      C1662   1.286       .  A
O1646     Zr1654   2.435       .  S
O1646      C1661   1.285       .  A
O1647     Zr1652   2.396       .  S
O1647     Zr1654   2.376       .  S
O1648     Zr1653   2.390       .  S
O1648     Zr1654   2.370       .  S
O1648      H1683   0.963       .  S
O1649     Zr1652   2.404       .  S
O1650     Zr1653   2.396       .  S
Zr1651     O1676   2.440       .  S
Zr1651     O1670   2.435       .  S
Zr1651     O1678   2.426       .  S
Zr1651     O1666   2.428       .  S
Zr1651     O1657   2.400       .  S
Zr1651     O1658   2.405       .  S
Zr1651     O1659   2.375       .  S
Zr1651     O1660   2.376       .  S
Zr1652     O1665   2.437   1_565  S
Zr1652     O1658   2.396       .  S
Zr1652     O1659   2.395       .  S
Zr1653     O1655   2.436       .  S
Zr1653     O1677   2.436       .  S
Zr1653     O1679   2.460       .  S
Zr1653     O1657   2.389       .  S
Zr1653     O1660   2.387       .  S
Zr1654     O1680   2.435       .  S
Zr1654     O1681   2.436       .  S
Zr1654     O1657   2.397       .  S
Zr1654     O1658   2.398       .  S
O1655      H1692   0.990       .  S
O1656      H1687   0.990       .  S
O1656      H1701   0.990       .  S
O1658      H1684   0.961       .  S
O1660      H1685   0.973       .  S
C1661      C1761   1.482       .  S
C1662      C1733   1.491       .  S
C1663      C1789   1.494       .  S
O1664      H1700   0.990       .  S
O1665      C1667   1.284       .  A
O1666      C1667   1.284   1_565  A
O1668     Zr1669   2.436       .  S
O1668      H1697   0.990       .  S
Zr1669     O1672   2.436       .  S
Zr1669     O1673   2.437       .  S
Zr1669     O1674   2.414       .  S
O1671      H1703   0.990   1_565  S
O1672      H1689   0.990       .  S
O1673      H1693   0.990       .  S
O1673      H1702   0.990       .  S
O1674      C1675   1.279       .  A
C1675      C1901   1.477       .  S
O1676      H1695   0.990       .  S
O1676      H1699   0.991       .  S
O1677      H1691   0.990       .  S
O1677      H1698   0.990       .  S
O1678      C1682   1.284       .  A
O1679      C1682   1.290       .  A
O1680      H1690   0.990       .  S
C1682      C1966   1.487       .  S
C1705      N1706   1.360       .  A
C1705      N1710   1.361       .  A
C1705      C1873   1.483       .  S
N1706      C1707   1.353       .  A
C1707      N1708   1.358       .  A
C1707      C1770   1.480       .  S
N1708      C1709   1.361       .  A
C1709      N1710   1.363       .  A
C1709      C1719   1.465       .  S
C1711      N1712   1.362       .  A
C1711      N1716   1.361       .  A
C1711      C1845   1.478       .  S
N1712      C1713   1.362       .  A
C1713      N1714   1.359       .  A
C1713      C1798   1.482       .  S
C1715      C1717   1.463       .  S
C1717      N1718   1.361       .  A
C1717      N1722   1.358       .  A
N1718      C1719   1.360       .  A
C1719      N1720   1.358       .  A
N1720      C1721   1.357       .  A
C1721      N1722   1.357       .  A
C1723      N1724   1.354       .  A
C1723      N1728   1.365       .  A
C1723      C1826   1.486       .  S
N1724      C1725   1.354       .  A
C1725      N1726   1.358       .  A
N1726      C1727   1.362       .  A
C1727      N1728   1.360       .  A
C1727      C1742   1.495       .  S
C1729      C1730   1.401       .  A
C1729      C1734   1.401       .  A
C1730      C1735   1.486       .  S
C1730      C1731   1.410       .  A
C1731      C1732   1.405       .  A
C1731      N1736   1.428       .  S
C1732      C1733   1.407       .  A
C1732      H1737   1.084       .  S
C1733      C1734   1.416       .  A
C1735      C1740   1.409       .  A
C1735      C1744   1.401       .  A
N1736      O1751   1.262       .  A
N1736      O1752   1.261       .  A
N1738      O1749   1.262       .  A
N1738      O1750   1.262   1_655  A
C1740      C1741   1.402       .  A
C1741      C1742   1.407       .  A
C1742      C1743   1.419       .  A
C1743      C1744   1.404       .  A
C1743      N1747   1.429       .  S
C1744      H1748   1.084       .  S
N1745      O1755   1.262       .  A
N1747      O1753   1.262       .  A
N1747      O1754   1.262       .  A
C1757      C1762   1.397       .  A
C1757      H1767   1.084       .  S
C1758      C1763   1.483       .  S
C1758      C1759   1.409       .  A
C1759      C1760   1.402       .  A
C1759      N1764   1.428       .  S
C1760      H1765   1.084       .  S
C1761      C1762   1.415       .  A
C1762      N1766   1.430       .  S
C1763      C1768   1.411       .  A
C1763      C1772   1.401       .  A
N1764      O1779   1.262       .  A
N1764      O1780   1.261       .  A
N1766      O1777   1.262       .  A
N1766      O1778   1.262       .  A
C1768      C1769   1.402       .  A
C1768      N1773   1.428       .  S
C1769      C1770   1.401       .  A
C1769      H1774   1.084       .  S
C1770      C1771   1.414       .  A
C1771      C1772   1.401       .  A
C1771      N1775   1.429       .  S
C1772      H1776   1.084       .  S
N1775      O1781   1.262       .  A
N1775      O1782   1.262       .  A
C1785      C1786   1.400       .  A
C1785      C1790   1.402       .  A
C1785      H1795   1.084       .  S
C1786      C1791   1.478       .  S
C1787      C1788   1.392       .  A
C1787      N1792   1.429       .  S
C1788      C1789   1.407       .  A
C1788      H1793   1.083   1_545  S
C1790      N1794   1.428       .  S
C1791      C1800   1.398       .  A
N1792      O1807   1.262       .  A
N1792      O1808   1.262   1_545  A
N1794      O1805   1.262       .  A
N1794      O1806   1.262       .  A
C1796      C1797   1.399       .  A
C1796      N1801   1.429   1_455  S
C1797      H1802   1.084   1_455  S
C1798      C1799   1.412       .  A
C1799      C1800   1.397       .  A
C1799      N1803   1.425       .  S
C1800      H1804   1.084       .  S
N1801      O1811   1.262       .  A
N1803      O1809   1.262       .  A
N1803      O1810   1.261       .  A
C1813      C1814   1.399       .  A
C1813      C1818   1.394       .  A
C1814      C1819   1.476       .  S
C1814      C1815   1.409       .  A
C1815      C1816   1.400       .  A
C1815      N1820   1.428       .  S
C1816      C1817   1.406       .  A
C1816      H1821   1.084       .  S
C1817      C1818   1.414       .  A
C1819      C1824   1.408       .  A
C1819      C1828   1.400       .  A
N1820      O1835   1.262       .  A
N1820      O1836   1.262       .  A
N1822      O1833   1.262   1_655  A
N1822      O1834   1.262       .  A
C1824      C1825   1.392       .  A
C1824      N1829   1.428       .  S
C1825      C1826   1.402       .  A
C1825      H1830   1.083       .  S
C1826      C1827   1.422       .  A
C1827      C1828   1.402       .  A
C1827      N1831   1.430       .  S
C1828      H1832   1.084       .  S
N1829      O1840   1.261       .  A
N1831      O1837   1.262       .  A
N1831      O1838   1.262       .  A
C1841      C1842   1.403       .  A
C1841      C1846   1.399       .  A
C1841      H1851   1.084       .  S
C1842      C1847   1.485       .  S
C1843      C1844   1.401       .  A
C1843      N1848   1.428       .  S
C1844      H1849   1.084       .  S
C1845      C1846   1.410       .  A
C1846      N1850   1.428       .  S
C1847      C1852   1.410       .  A
N1850      O1861   1.261       .  A
N1850      O1862   1.261       .  A
C1852      C1853   1.402       .  A
C1852      N1857   1.428       .  S
C1853      H1858   1.084       .  S
C1854      C1855   1.419       .  A
C1856      H1860   1.084       .  S
N1857      O1867   1.262       .  A
N1857      O1868   1.262       .  A
N1859      O1865   1.262   1_565  A
N1859      O1866   1.261       .  A
C1869      C1870   1.404       .  A
C1869      C1874   1.406       .  A
C1869      H1879   1.083       .  S
C1870      C1875   1.481       .  S
C1870      C1871   1.409       .  A
C1871      C1872   1.390       .  A
C1871      N1876   1.429       .  S
C1872      C1873   1.402       .  A
C1872      H1877   1.082       .  S
C1873      C1874   1.416       .  A
C1874      N1878   1.428       .  S
C1875      C1880   1.409       .  A
C1875      C1884   1.401       .  A
N1876      O1891   1.262       .  A
N1876      O1892   1.262       .  A
N1878      O1889   1.262       .  A
N1878      O1890   1.262       .  A
C1880      C1881   1.398       .  A
C1880      N1885   1.428       .  S
C1881      H1886   1.084       .  S
C1882      C1883   1.416       .  A
C1883      N1887   1.429       .  S
N1885      O1895   1.262       .  A
N1885      O1896   1.262       .  A
N1887      O1893   1.262       .  A
N1887      O1894   1.261       .  A
C1897      C1898   1.400       .  A
C1897      C1902   1.400       .  A
C1897      H1907   1.084       .  S
C1898      C1903   1.476       .  S
C1898      C1899   1.410       .  A
C1899      C1900   1.394       .  A
C1899      N1904   1.429       .  S
C1900      C1901   1.401       .  A
C1900      H1905   1.084       .  S
C1901      C1902   1.416       .  A
C1902      N1906   1.429       .  S
C1903      C1908   1.410       .  A
C1903      C1912   1.398       .  A
N1904      O1919   1.262       .  A
N1904      O1920   1.262       .  A
N1906      O1917   1.262       .  A
N1906      O1918   1.262       .  A
C1908      C1909   1.399       .  A
C1908      N1913   1.428       .  S
C1909      C1910   1.402       .  A
C1909      H1914   1.084       .  S
C1910      C1911   1.414       .  A
C1911      C1912   1.394       .  A
C1911      N1915   1.430       .  S
C1912      H1916   1.084       .  S
N1913      O1923   1.262       .  A
N1913      O1924   1.262       .  A
N1915      O1921   1.262       .  A
N1915      O1922   1.261       .  A
C1925      C1926   1.400       .  A
C1925      C1930   1.399       .  A
C1925      H1935   1.084       .  S
C1926      C1931   1.477       .  S
C1926      C1927   1.410       .  A
C1927      C1928   1.394       .  A
C1927      N1932   1.429       .  S
C1928      C1929   1.404       .  A
C1928      H1933   1.084       .  S
C1929      C1930   1.416       .  A
C1930      N1934   1.428       .  S
C1931      C1936   1.411       .  A
C1931      C1940   1.399       .  A
N1932      O1947   1.262       .  A
N1932      O1948   1.262       .  A
N1934      O1945   1.262       .  A
N1934      O1946   1.262       .  A
C1936      C1937   1.399       .  A
C1936      N1941   1.428       .  S
C1937      C1938   1.402       .  A
C1937      H1942   1.084       .  S
C1938      C1939   1.414       .  A
C1939      C1940   1.395       .  A
C1939      N1943   1.429       .  S
C1940      H1944   1.084       .  S
N1941      O1951   1.262       .  A
N1941      O1952   1.262       .  A
N1943      O1949   1.262       .  A
N1943      O1950   1.261       .  A
C1953      C1954   1.402       .  A
C1953      C1958   1.399       .  A
C1953      H1963   1.084       .  S
C1954      C1959   1.480       .  S
C1954      C1955   1.408       .  A
C1955      C1956   1.399       .  A
C1955      N1960   1.427       .  S
C1956      C1957   1.401       .  A
C1956      H1961   1.084       .  S
C1957      C1958   1.415       .  A
C1958      N1962   1.430       .  S
C1959      C1964   1.408       .  A
C1959      C1968   1.398       .  A
N1960      O1975   1.262       .  A
N1960      O1976   1.262       .  A
N1962      O1973   1.262       .  A
N1962      O1974   1.262       .  A
C1964      C1965   1.405       .  A
C1964      N1969   1.431       .  S
C1965      C1966   1.410       .  A
C1965      H1970   1.084       .  S
C1966      C1967   1.414       .  A
C1967      C1968   1.400       .  A
C1967      N1971   1.427       .  S
C1968      H1972   1.084       .  S
N1969      O1979   1.262       .  A
N1969      O1980   1.262       .  A
N1971      O1977   1.262       .  A
N1971      O1978   1.262       .  A
C1981      C1982   1.401       .  A
C1981      C1986   1.398       .  A
C1981      H1991   1.084       .  S
C1982      C1987   1.478       .  S
C1982      C1983   1.412       .  A
C1983      C1984   1.396       .  A
C1983      N1988   1.429       .  S
C1984      C1985   1.399       .  A
C1984      H1989   1.084       .  S
C1985      C1986   1.410       .  A
C1986      N1990   1.429       .  S
C1987      C1992   1.408       .  A
C1987      C1996   1.400       .  A
N1988      O2003   1.262       .  A
N1988      O2004   1.262       .  A
N1990      O2002   1.262       .  A
C1992      C1993   1.393       .  A
C1992      N1997   1.429       .  S
C1993      C1994   1.407       .  A
C1993      H1998   1.084       .  S
C1994      C1995   1.419       .  A
C1995      C1996   1.401       .  A
C1995      N1999   1.428       .  S
C1996      H2000   1.084       .  S
N1997      O2007   1.262       .  A
N1997      O2008   1.262       .  A
N1999      O2005   1.262       .  A
N1999      O2006   1.262       .  A
C2009      C2010   1.405       .  A
C2009      C2014   1.408       .  A
C2010      C2015   1.496       .  S
C2010      C2011   1.413       .  A
C2011      C2012   1.400       .  A
C2011      N2016   1.429       .  S
C2012      C2013   1.407       .  A
C2012      H2017   1.083       .  S
C2013      C2014   1.418       .  A
C2015      C2020   1.414       .  A
C2015      C2024   1.406       .  A
N2016      O2031   1.262       .  A
N2016      O2032   1.262       .  A
N2018      O2029   1.262       .  A
N2018      O2030   1.262       .  A
C2022      C2023   1.414       .  A
C2023      C2024   1.407       .  A
C2023      N2027   1.429       .  S
C2024      H2028   1.084       .  S
N2025      O2035   1.262   1_455  A
N2027      O2033   1.262       .  A
N2027      O2034   1.262       .  A
C2037      C2038   1.405       .  A
C2037      C2042   1.410       .  A
C2037      H2047   1.084       .  S
C2038      C2043   1.493       .  S
C2038      C2039   1.413       .  A
C2039      C2040   1.397       .  A
C2039      N2044   1.430       .  S
C2040      C2041   1.404       .  A
C2040      H2045   1.084       .  S
C2041      C2042   1.416       .  A
C2042      N2046   1.428       .  S
C2043      C2048   1.415       .  A
C2043      C2052   1.401       .  A
N2044      O2059   1.262       .  A
N2044      O2060   1.261       .  A
N2046      O2057   1.262       .  A
N2046      O2058   1.262       .  A
C2048      C2049   1.407       .  A
C2048      N2053   1.428       .  S
C2049      C2050   1.405       .  A
C2049      H2054   1.084       .  S
C2051      N2055   1.430   1_545  S
C2052      H2056   1.083       .  S
N2053      O2063   1.262       .  A
N2053      O2064   1.262       .  A
N2055      O2061   1.262       .  A
