geometry optimzed in LAMMPS
_audit_creation_date              2020-12-01 
_audit_creation_method            'lammps2cif' 
_symmetry_space_group_name_H-M    'P1' 
_symmetry_Int_Tables_number       1 
_symmetry_cell_setting            triclinic 
loop_ 
_symmetry_equiv_pos_as_xyz 
  x,y,z 
_cell_length_a                    45.39996563 
_cell_length_b                    46.05567855407255 
_cell_length_c                    46.20624544770266 
_cell_angle_alpha                 89.90318815645442 
_cell_angle_beta                  89.85646671139712 
_cell_angle_gamma                 90.03799038283242 
loop_ 
_atom_site_label 
_atom_site_type_symbol 
_atom_site_fract_x 
_atom_site_fract_y 
_atom_site_fract_z 
_atom_site_charge 
N1          N  0.70253601  0.19858537  0.12779012    -0.02600
C2          C  0.67948543  0.19820574  0.14644976     0.00000
C3          C  0.66540869  0.17162941  0.14556263    -0.22900
C4          C  0.68070263  0.15487143  0.12599715    -0.23100
C5          C  0.70333691  0.17197969  0.11538168    -0.00100
H6          H  0.64628112  0.16507422  0.15798808     0.13700
H7          H  0.67542985  0.13285428  0.11968247     0.13700
N8          N  0.69535945  0.20346884  0.37719815    -0.02600
C9          C  0.66922955  0.20512643  0.36320121     0.00000
C10         C  0.65163821  0.18168940  0.37041791    -0.22900
C11         C  0.66757556  0.16496340  0.38945109    -0.23100
C12         C  0.69416148  0.17898987  0.39351688    -0.00100
H13         H  0.62989424  0.17686205  0.36215205     0.13700
H14         H  0.66040610  0.14492866  0.39952815     0.13700
N15         N  0.63183399  0.24745749  0.30884273    -0.26400
N16         N  0.65817683  0.24511151  0.29680489    -0.34300
C17         C  0.67669371  0.23277942  0.31597656     0.01900
C18         C  0.66112532  0.22673414  0.34107826     0.08000
C19         C  0.63280862  0.23632217  0.33569956    -0.05100
H20         H  0.69862837  0.22523955  0.31068134     0.08600
H21         H  0.61363661  0.23273783  0.34919053     0.09800
Cu22       Cu  0.66503869  0.24979889  0.25253213     0.44200
Cu23       Cu  0.59391903  0.25917753  0.28675903     0.42000
Cu24       Cu  0.59728738  0.25829268  0.20985246     0.43900
N25         N  0.66250298  0.24285546  0.20812870    -0.33800
N26         N  0.63785779  0.24528986  0.19307056    -0.28000
C27         C  0.64180444  0.23274263  0.16711989    -0.04100
C28         C  0.67022305  0.22209978  0.16549562     0.08100
C29         C  0.68271718  0.22887017  0.19191604     0.01900
H30         H  0.62426047  0.22867407  0.15184779     0.09500
H31         H  0.70344761  0.22079710  0.20012983     0.08600
N32         N  0.55815328  0.26549305  0.23241399    -0.35200
N33         N  0.55721556  0.26593325  0.26099047    -0.27400
C34         C  0.52905987  0.26850154  0.26969672    -0.02700
C35         C  0.51124826  0.26959335  0.24546207     0.05900
C36         C  0.53046096  0.26772988  0.22213408     0.04000
H37         H  0.52200287  0.26819667  0.29207146     0.09100
H38         H  0.52466008  0.26671886  0.19946382     0.08000
N39         N  0.74182526  0.13259590  0.05938550    -0.26400
N40         N  0.73880607  0.15813265  0.04656919    -0.34300
C41         C  0.72769453  0.17718721  0.06584170     0.01900
C42         C  0.72321785  0.16283773  0.09184649     0.08000
C43         C  0.73242749  0.13468592  0.08688229    -0.05100
H44         H  0.72005187  0.19875347  0.06034868     0.08600
H45         H  0.72977616  0.11636758  0.10134232     0.09800
Cu46       Cu  0.74187304  0.16369727  0.50179823     0.44200
Cu47       Cu  0.75179177  0.09400589  0.03830426     0.42000
Cu48       Cu  0.74606867  0.09529258  0.46161027     0.43900
N49         N  0.73559249  0.16047997  0.45728335    -0.33800
N50         N  0.73624342  0.13551723  0.44315283    -0.28000
C51         C  0.72486071  0.13958058  0.41664224    -0.04100
C52         C  0.71686455  0.16842061  0.41365498     0.08100
C53         C  0.72405163  0.18104889  0.43986918     0.01900
H54         H  0.71973628  0.12216984  0.40178970     0.09500
H55         H  0.71768595  0.20247914  0.44706019     0.08600
N56         N  0.75314681  0.05697811  0.48471084    -0.35200
N57         N  0.75540951  0.05671023  0.01332117    -0.27400
C58         C  0.75831717  0.02904417  0.02233480    -0.02700
C59         C  0.75790911  0.01094918  0.49828373     0.05900
C60         C  0.75454594  0.02948234  0.47482541     0.04000
H61         H  0.75982609  0.02247958  0.04477365     0.09100
H62         H  0.75247818  0.02339514  0.45232188     0.08000
N63         N  0.70558141  0.79014202  0.36975509    -0.02600
C64         C  0.70529549  0.81492052  0.38563094     0.00000
C65         C  0.67985033  0.83045115  0.38030779    -0.22900
C66         C  0.66350555  0.81434196  0.36119153    -0.23100
C67         C  0.67966660  0.78966196  0.35515585    -0.00100
H68         H  0.67327286  0.85069247  0.39028320     0.13700
H69         H  0.64197455  0.81988475  0.35283433     0.13700
N70         N  0.70037925  0.79241551  0.12613975    -0.02600
C71         C  0.70073637  0.81727571  0.11036514     0.00000
C72         C  0.67563346  0.83334007  0.11574706    -0.22900
C73         C  0.65886230  0.81746246  0.13488254    -0.23100
C74         C  0.67449038  0.79242020  0.14087674    -0.00100
H75         H  0.66965424  0.85387490  0.10597338     0.13700
H76         H  0.63757644  0.82356729  0.14353288     0.13700
N77         N  0.63181778  0.74990641  0.19158469    -0.26400
N78         N  0.65797672  0.74873322  0.20403482    -0.34300
C79         C  0.67813727  0.76044592  0.18599762     0.01900
C80         C  0.66390903  0.76994905  0.16124298     0.08000
C81         C  0.63460654  0.76281724  0.16563139    -0.05100
H82         H  0.70058587  0.76505449  0.19210774     0.08600
H83         H  0.61622120  0.76923361  0.15222615     0.09800
Cu84       Cu  0.66335162  0.74076032  0.24805186     0.44200
Cu85       Cu  0.59235922  0.74005774  0.21230569     0.42000
Cu86       Cu  0.59425510  0.73718532  0.28924443     0.43900
N87         N  0.66057888  0.74676717  0.29262406    -0.33800
N88         N  0.63540028  0.74638377  0.30711529    -0.28000
C89         C  0.63976962  0.75832344  0.33326035    -0.04100
C90         C  0.66899630  0.76661817  0.33560225     0.08100
C91         C  0.68156751  0.75873958  0.30942831     0.01900
H92         H  0.62220607  0.76376211  0.34815739     0.09500
H93         H  0.70314642  0.76495436  0.30162325     0.08600
N94         N  0.55525757  0.73260638  0.26587439    -0.35200
N95         N  0.55482991  0.73345738  0.23729101    -0.27400
C96         C  0.52679750  0.73137420  0.22814963    -0.02700
C97         C  0.50854490  0.72925860  0.25210962     0.05900
C98         C  0.52736708  0.73007182  0.27571528     0.04000
H99         H  0.52014937  0.73231539  0.20570492     0.09100
H100        H  0.52120644  0.72967788  0.29834652     0.08000
N101        N  0.74412960  0.85512897  0.44005119    -0.26400
N102        N  0.74072041  0.83007637  0.45370916    -0.34300
C103        C  0.73008313  0.81032983  0.43485588     0.01900
C104        C  0.72655145  0.82360574  0.40812369     0.08000
C105        C  0.73567897  0.85194167  0.41241402    -0.05100
H106        H  0.72184553  0.78914599  0.44104752     0.08600
H107        H  0.73298362  0.86980637  0.39742169     0.09800
Cu108      Cu  0.74310010  0.82623239  0.49868579     0.44200
Cu109      Cu  0.75267065  0.89475788  0.46003809     0.42000
Cu110      Cu  0.75399099  0.89508537  0.03670650     0.43900
N111        N  0.73915556  0.83103029  0.04323843    -0.33800
N112        N  0.74282578  0.85610069  0.05671131    -0.28000
C113        C  0.73281889  0.85356746  0.08397376    -0.04100
C114        C  0.72258033  0.82559320  0.08819239     0.08100
C115        C  0.72698196  0.81186193  0.06188107     0.01900
H116        H  0.73016279  0.87164216  0.09867193     0.09500
H117        H  0.71847389  0.79084800  0.05569401     0.08600
N118        N  0.75786825  0.93293643  0.01239848    -0.35200
N119        N  0.75691144  0.93285001  0.48392206    -0.27400
C120        C  0.75740362  0.96051970  0.47437191    -0.02700
C121        C  0.75877546  0.97882855  0.49812171     0.05900
C122        C  0.75913561  0.96054435  0.02187817     0.04000
H123        H  0.75604563  0.96683758  0.45185241     0.09100
H124        H  0.75922371  0.96676735  0.04444096     0.08000
N125        N  0.28318388  0.79261596  0.37173669    -0.02600
C126        C  0.30714309  0.79315910  0.35424525     0.00000
C127        C  0.32114113  0.81972126  0.35603402    -0.22900
C128        C  0.30489581  0.83627833  0.37500651    -0.23100
C129        C  0.28177617  0.81907298  0.38441602    -0.00100
H130        H  0.34088075  0.82638516  0.34463415     0.13700
H131        H  0.30994882  0.85817280  0.38188206     0.13700
N132        N  0.28595855  0.78948124  0.12520751    -0.02600
C133        C  0.31120268  0.78885974  0.14089285     0.00000
C134        C  0.32741487  0.81380942  0.13612739    -0.22900
C135        C  0.31172497  0.83033816  0.11679282    -0.23100
C136        C  0.28664368  0.81476164  0.11002653    -0.00100
H137        H  0.34837181  0.81942312  0.14574362     0.13700
H138        H  0.31838835  0.85108165  0.10786772     0.13700
N139        N  0.35219887  0.74540995  0.19165859    -0.26400
N140        N  0.32621096  0.74600012  0.20462647    -0.34300
C141        C  0.30639545  0.75806481  0.18656023     0.01900
C142        C  0.32062117  0.76582936  0.16113758     0.08000
C143        C  0.34958952  0.75738073  0.16525003    -0.05100
H144        H  0.28443965  0.76441410  0.19305161     0.08600
H145        H  0.36808401  0.76268661  0.15140647     0.09800
Cu146      Cu  0.32114987  0.74016192  0.24900929     0.44200
Cu147      Cu  0.39171143  0.73569871  0.21237979     0.42000
Cu148      Cu  0.39043618  0.73638469  0.28943013     0.43900
N149        N  0.32458858  0.74775102  0.29323814    -0.33800
N150        N  0.34988380  0.74726950  0.30740880    -0.28000
C151        C  0.34619495  0.76041257  0.33308427    -0.04100
C152        C  0.31726759  0.76942482  0.33544253     0.08100
C153        C  0.30415163  0.76095180  0.30982305     0.01900
H154        H  0.36403348  0.76601886  0.34751190     0.09500
H155        H  0.28264881  0.76754208  0.30217690     0.08600
N156        N  0.42919867  0.73118366  0.26593808    -0.35200
N157        N  0.42956177  0.73094297  0.23734229    -0.27400
C158        C  0.45767467  0.72938290  0.22816497    -0.02700
C159        C  0.47596458  0.72867635  0.25212377     0.05900
C160        C  0.45711318  0.72978717  0.27574519     0.04000
H161        H  0.46433495  0.72975330  0.20567406     0.09100
H162        H  0.46324973  0.73059411  0.29833724     0.08000
N163        N  0.24732672  0.85665607  0.05672742    -0.26400
N164        N  0.24942514  0.83161220  0.04286610    -0.34300
C165        C  0.26047720  0.81148028  0.06115107     0.01900
C166        C  0.26567365  0.82452522  0.08767263     0.08000
C167        C  0.25713415  0.85310842  0.08388709    -0.05100
H168        H  0.26754533  0.79002463  0.05463456     0.08600
H169        H  0.26067189  0.87074802  0.09890891     0.09800
Cu170      Cu  0.24431393  0.82792382  0.49802752     0.44200
Cu171      Cu  0.23781372  0.89659012  0.03766144     0.42000
Cu172      Cu  0.23438500  0.89729164  0.46097276     0.43900
N173        N  0.24651423  0.83302675  0.45314240    -0.33800
N174        N  0.24331287  0.85843083  0.44012324    -0.28000
C175        C  0.25218612  0.85608345  0.41249262    -0.04100
C176        C  0.26129537  0.82789062  0.40758066     0.08100
C177        C  0.25724299  0.81378727  0.43381957     0.01900
H178        H  0.25490916  0.87434215  0.39795781     0.09500
H179        H  0.26514041  0.79237422  0.43942128     0.08600
N180        N  0.23177533  0.93492086  0.48540016    -0.35200
N181        N  0.23306137  0.93486439  0.01406689    -0.27400
C182        C  0.23253180  0.96249781  0.02362148    -0.02700
C183        C  0.23114016  0.98078324  0.49972861     0.05900
C184        C  0.23061046  0.96254425  0.47595164     0.04000
H185        H  0.23393306  0.96876052  0.04612772     0.09100
H186        H  0.23016261  0.96886088  0.45339375     0.08000
N187        N  0.28638588  0.20317681  0.12356630    -0.02600
C188        C  0.31293111  0.20403806  0.13685713     0.00000
C189        C  0.32959106  0.18013613  0.12920553    -0.22900
C190        C  0.31266647  0.16397897  0.11055752    -0.23100
C191        C  0.28641334  0.17876473  0.10719127    -0.00100
H192        H  0.35148685  0.17478673  0.13672459     0.13700
H193        H  0.31908131  0.14396436  0.10004395     0.13700
N194        N  0.29222462  0.20058022  0.37301449    -0.02600
C195        C  0.31634600  0.20039525  0.35569734     0.00000
C196        C  0.33169791  0.17472835  0.35919021    -0.22900
C197        C  0.31606064  0.15832179  0.37888381    -0.23100
C198        C  0.29196350  0.17475098  0.38703503    -0.00100
H199        H  0.35169742  0.16834888  0.34811128     0.13700
H200        H  0.32182617  0.13688586  0.38664705     0.13700
N201        N  0.24921563  0.13474898  0.43966118    -0.26400
N202        N  0.25090999  0.16020966  0.45277214    -0.34300
C203        C  0.26348334  0.17949487  0.43452736     0.01900
C204        C  0.27028952  0.16535311  0.40893519     0.08000
C205        C  0.26092391  0.13710030  0.41304632    -0.05100
H206        H  0.27045958  0.20105545  0.44069864     0.08600
H207        H  0.26499867  0.11890556  0.39882805     0.09800
Cu208      Cu  0.24421113  0.16539906  0.49712565     0.44200
Cu209      Cu  0.23818299  0.09592152  0.45979586     0.42000
Cu210      Cu  0.23629719  0.09734102  0.03690238     0.43900
N211        N  0.24679777  0.16225777  0.04213741    -0.33800
N212        N  0.24454311  0.13732496  0.05622550    -0.28000
C213        C  0.25450964  0.14098033  0.08332417    -0.04100
C214        C  0.26341316  0.16951297  0.08674534     0.08100
C215        C  0.25806124  0.18239415  0.06015841     0.01900
H216        H  0.25865807  0.12330421  0.09821814     0.09500
H217        H  0.26589975  0.20346334  0.05320280     0.08600
N218        N  0.23325364  0.05901152  0.01329647    -0.35200
N219        N  0.23385468  0.05855362  0.48458873    -0.27400
C220        C  0.23261026  0.03084782  0.47545905    -0.02700
C221        C  0.23163299  0.01285085  0.49948632     0.05900
C222        C  0.23196139  0.03149165  0.02316727     0.04000
H223        H  0.23305014  0.02430118  0.45298981     0.09100
H224        H  0.23190494  0.02545924  0.04580832     0.08000
N225        N  0.35430228  0.24635535  0.18821700    -0.26400
N226        N  0.32886585  0.24408899  0.20210440    -0.34300
C227        C  0.30894903  0.23178957  0.18431800     0.01900
C228        C  0.32261736  0.22570718  0.15821532     0.08000
C229        C  0.35128384  0.23521616  0.16154926    -0.05100
H230        H  0.28741367  0.22435029  0.19113104     0.08600
H231        H  0.36939645  0.23157602  0.14673756     0.09800
Cu232      Cu  0.32462462  0.24898190  0.24674335     0.44200
Cu233      Cu  0.39416773  0.25796671  0.20700687     0.42000
Cu234      Cu  0.39449378  0.25744225  0.28396367     0.43900
N235        N  0.32975685  0.24265296  0.29111102    -0.33800
N236        N  0.35551961  0.24490860  0.30422668    -0.28000
C237        C  0.35339205  0.23303870  0.33073361    -0.04100
C238        C  0.32493248  0.22310653  0.33481929     0.08100
C239        C  0.31052179  0.22956667  0.30921921     0.01900
H240        H  0.37197658  0.22913788  0.34482436     0.09500
H241        H  0.28895912  0.22191651  0.30288374     0.08600
N242        N  0.43227231  0.26472803  0.25943788    -0.35200
N243        N  0.43231430  0.26475241  0.23084504    -0.27400
C244        C  0.46026735  0.26749227  0.22129992    -0.02700
C245        C  0.47869728  0.26924854  0.24510379     0.05900
C246        C  0.46013307  0.26751297  0.26888866     0.04000
H247        H  0.46676389  0.26705944  0.19876349     0.09100
H248        H  0.46649349  0.26703318  0.29142871     0.08000
N249        N  0.19679735  0.28968800  0.12544469    -0.02600
C250        C  0.19617793  0.31388594  0.14210326     0.00000
C251        C  0.16976166  0.32833562  0.13857040    -0.22900
C252        C  0.15332970  0.31212424  0.11950821    -0.23100
C253        C  0.17047775  0.28857381  0.11176721    -0.00100
H254        H  0.16293628  0.34816188  0.14918770     0.13700
H255        H  0.13146368  0.31724301  0.11174999     0.13700
N256        N  0.20182722  0.28600855  0.37536505    -0.02600
C257        C  0.20269094  0.31250628  0.36260943     0.00000
C258        C  0.17939645  0.32933457  0.37208617    -0.22900
C259        C  0.16366173  0.31257622  0.39135460    -0.23100
C260        C  0.17811816  0.28625770  0.39323692    -0.00100
H261        H  0.17417691  0.35127330  0.36542401     0.13700
H262        H  0.14415824  0.31908800  0.40318732     0.13700
N263        N  0.13137205  0.24583864  0.05888545    -0.26400
N264        N  0.15749203  0.24764451  0.04625466    -0.34300
C265        C  0.17653585  0.26024274  0.06474087     0.01900
C266        C  0.16154209  0.26699310  0.08998015     0.08000
C267        C  0.13303247  0.25755448  0.08542523    -0.05100
H268        H  0.19850525  0.26727996  0.05890688     0.08600
H269        H  0.11421039  0.26149360  0.09927244     0.09800
Cu270      Cu  0.16389898  0.24065018  0.50200963     0.44200
Cu271      Cu  0.09275354  0.23403542  0.03803901     0.42000
Cu272      Cu  0.09585308  0.23169217  0.46093705     0.43900
N273        N  0.16131288  0.24491892  0.45718724    -0.33800
N274        N  0.13643208  0.24220947  0.44259275    -0.28000
C275        C  0.14034396  0.25306301  0.41584960    -0.04100
C276        C  0.16900416  0.26295351  0.41319182     0.08100
C277        C  0.18166106  0.25741023  0.43987488     0.01900
H278        H  0.12262793  0.25688133  0.40069504     0.09500
H279        H  0.20259716  0.26563840  0.44739970     0.08600
N280        N  0.05679286  0.22683339  0.48414479    -0.35200
N281        N  0.05572390  0.22755143  0.01262535    -0.27400
C282        C  0.02749807  0.22566004  0.02137665    -0.02700
C283        C  0.00986420  0.22388636  0.49724440     0.05900
C284        C  0.02911521  0.22457004  0.47392696     0.04000
H285        H  0.02039296  0.22662728  0.04371817     0.09100
H286        H  0.02339864  0.22438571  0.45121496     0.08000
N287        N  0.24315292  0.35350964  0.30914189    -0.26400
N288        N  0.24041553  0.32842604  0.29549731    -0.34300
C289        C  0.22886446  0.30870055  0.31391925     0.01900
C290        C  0.22378549  0.32212453  0.34025645     0.08000
C291        C  0.23315189  0.35044223  0.33635424    -0.05100
H292        H  0.22114773  0.28744544  0.30752949     0.08600
H293        H  0.22997620  0.36828158  0.35122505     0.09800
Cu294      Cu  0.24398280  0.32451656  0.25075928     0.44200
Cu295      Cu  0.25316415  0.39290848  0.28930879     0.42000
Cu296      Cu  0.25134988  0.39367790  0.21233582     0.43900
N297        N  0.23813449  0.32925167  0.20634501    -0.33800
N298        N  0.23992857  0.35451894  0.19277667    -0.28000
C299        C  0.22828912  0.35166850  0.16621439    -0.04100
C300        C  0.21903543  0.32327363  0.16261662     0.08100
C301        C  0.22566530  0.30966946  0.18850916     0.01900
H302        H  0.22394572  0.36965702  0.15175547     0.09500
H303        H  0.21836748  0.28833654  0.19522112     0.08600
N304        N  0.25696210  0.43123887  0.23677982    -0.35200
N305        N  0.25738460  0.43100073  0.26537280    -0.27400
C306        C  0.25902635  0.45854941  0.27504325    -0.02700
C307        C  0.25972566  0.47704873  0.25135613     0.05900
C308        C  0.25844162  0.45893013  0.22746483     0.04000
H309        H  0.25895035  0.46466631  0.29763636     0.09100
H310        H  0.25768977  0.46542388  0.20496463     0.08000
N311        N  0.78975889  0.28718353  0.12318531    -0.02600
C312        C  0.78938062  0.31346751  0.13627444     0.00000
C313        C  0.81313234  0.32995308  0.12717296    -0.22900
C314        C  0.82863290  0.31318206  0.10778856    -0.23100
C315        C  0.81358278  0.28721418  0.10547052    -0.00100
H316        H  0.81876669  0.35169057  0.13411078     0.13700
H317        H  0.84831307  0.31950855  0.09610268     0.13700
N318        N  0.78564457  0.28940340  0.37406491    -0.02600
C319        C  0.78575972  0.31343769  0.35709942     0.00000
C320        C  0.81206524  0.32824358  0.36006270    -0.22900
C321        C  0.82898483  0.31239982  0.37901411    -0.23100
C322        C  0.81225033  0.28868574  0.38723199    -0.00100
H323        H  0.81855296  0.34798806  0.34901331     0.13700
H324        H  0.85098751  0.31775662  0.38623526     0.13700
N325        N  0.74777935  0.35454032  0.18875616    -0.26400
N326        N  0.74952820  0.32926347  0.20231886    -0.34300
C327        C  0.76164080  0.30960599  0.18425160     0.01900
C328        C  0.76809327  0.32328738  0.15829274     0.08000
C329        C  0.75898679  0.35165972  0.16200012    -0.05100
H330        H  0.76855835  0.28808242  0.19070907     0.08600
H331        H  0.76292881  0.36959520  0.14734362     0.09800
Cu332      Cu  0.74340932  0.32455974  0.24678677     0.44200
Cu333      Cu  0.73731216  0.39393261  0.20812791     0.42000
Cu334      Cu  0.73596891  0.39318139  0.28489701     0.43900
N335        N  0.74634456  0.32848388  0.29159850    -0.33800
N336        N  0.74399083  0.35365461  0.30513123    -0.28000
C337        C  0.75385300  0.35057193  0.33233232    -0.04100
C338        C  0.76281596  0.32216510  0.33639838     0.08100
C339        C  0.75761288  0.30874099  0.31008680     0.01900
H340        H  0.75793171  0.36854973  0.34682607     0.09500
H341        H  0.76553144  0.28757785  0.30363094     0.08600
N342        N  0.73347550  0.43137007  0.26103203    -0.35200
N343        N  0.73367920  0.43169857  0.23244614    -0.27400
C344        C  0.73334199  0.45946170  0.22322406    -0.02700
C345        C  0.73301543  0.47747730  0.24722155     0.05900
C346        C  0.73310986  0.45888678  0.27081725     0.04000
H347        H  0.73415326  0.46602525  0.20074275     0.09100
H348        H  0.73354136  0.46488578  0.29343536     0.08000
N349        N  0.85366240  0.24581569  0.43830780    -0.26400
N350        N  0.82805635  0.24744279  0.45196955    -0.34300
C351        C  0.80822435  0.26006839  0.43431310     0.01900
C352        C  0.82212674  0.26702061  0.40854161     0.08000
C353        C  0.85083909  0.25769386  0.41190330    -0.05100
H354        H  0.78648355  0.26698185  0.44104782     0.08600
H355        H  0.86904110  0.26178907  0.39730354     0.09800
Cu356      Cu  0.82326211  0.24091266  0.49631201     0.44200
Cu357      Cu  0.89333451  0.23390225  0.45725713     0.42000
Cu358      Cu  0.89216708  0.23189207  0.03418979     0.43900
N359        N  0.82734710  0.24593200  0.04081515    -0.33800
N360        N  0.85282054  0.24306900  0.05432913    -0.28000
C361        C  0.85029655  0.25411483  0.08110403    -0.04100
C362        C  0.82188942  0.26423214  0.08491598     0.08100
C363        C  0.80791695  0.25865265  0.05889644     0.01900
H364        H  0.86870954  0.25773024  0.09547820     0.09500
H365        H  0.78668205  0.26693321  0.05227934     0.08600
N366        N  0.93050588  0.22660846  0.01013728    -0.35200
N367        N  0.93112311  0.22728056  0.48165506    -0.27400
C368        C  0.95927126  0.22557536  0.47251197    -0.02700
C369        C  0.97735091  0.22374043  0.49656240     0.05900
C370        C  0.95828379  0.22444661  0.01998537     0.04000
H371        H  0.96610639  0.22675421  0.45009659     0.09100
H372        H  0.96428165  0.22448317  0.04262760     0.08000
N373        N  0.20580512  0.69446232  0.11978269    -0.02600
C374        C  0.17994189  0.69432496  0.10512753     0.00000
C375        C  0.16439179  0.66920562  0.11104639    -0.22900
C376        C  0.18113191  0.65341421  0.13016919    -0.23100
C377        C  0.20613879  0.66962199  0.13563244    -0.00100
H378        H  0.14303831  0.66315576  0.10260014     0.13700
H379        H  0.17503849  0.63296935  0.14011687     0.13700
N380        N  0.19952393  0.70069264  0.37306636    -0.02600
C381        C  0.17553787  0.69993509  0.39055237     0.00000
C382        C  0.16114495  0.67365541  0.38792350    -0.22900
C383        C  0.17722780  0.65741822  0.36856948    -0.23100
C384        C  0.20067376  0.67450568  0.35976258    -0.00100
H385        H  0.14149236  0.66679331  0.39935221     0.13700
H386        H  0.17216908  0.63560753  0.36144561     0.13700
N387        N  0.24612827  0.63154401  0.19105826    -0.26400
N388        N  0.24259547  0.65697883  0.20387006    -0.34300
C389        C  0.23131589  0.67591585  0.18451593     0.01900
C390        C  0.22740054  0.66166078  0.15840082     0.08000
C391        C  0.23699486  0.63362389  0.16351837    -0.05100
H392        H  0.22295291  0.69719482  0.19005938     0.08600
H393        H  0.23433926  0.61523883  0.14922421     0.09800
Cu394      Cu  0.24518074  0.66227987  0.24868003     0.44200
Cu395      Cu  0.25569149  0.59279485  0.21222023     0.42000
Cu396      Cu  0.25241350  0.59353734  0.28869296     0.43900
N397        N  0.23987357  0.65840625  0.29344393    -0.33800
N398        N  0.24217146  0.63339559  0.30741594    -0.28000
C399        C  0.23166110  0.63670517  0.33438671    -0.04100
C400        C  0.22233924  0.66505723  0.33787678     0.08100
C401        C  0.22800123  0.67829388  0.31147476     0.01900
H402        H  0.22809776  0.61895469  0.34936833     0.09500
H403        H  0.22059913  0.69954543  0.30477270     0.08600
N404        N  0.25749549  0.55521266  0.26536405    -0.35200
N405        N  0.25874072  0.55506236  0.23680297    -0.27400
C406        C  0.26023622  0.52740623  0.22752025    -0.02700
C407        C  0.25993621  0.50917901  0.25140459     0.05900
C408        C  0.25821291  0.52759614  0.27507437     0.04000
H409        H  0.26075410  0.52103746  0.20500430     0.09100
H410        H  0.25675853  0.52137898  0.29762465     0.08000
N411        N  0.13490590  0.74315353  0.44151117    -0.26400
N412        N  0.16069907  0.74175760  0.45468908    -0.34300
C413        C  0.18043444  0.72952595  0.43660004     0.01900
C414        C  0.16633483  0.72270412  0.41096372     0.08000
C415        C  0.13755084  0.73162188  0.41495672    -0.05100
H416        H  0.20216161  0.72239008  0.44306195     0.08600
H417        H  0.11913709  0.72693006  0.40090710     0.09800
Cu418      Cu  0.16550850  0.74706148  0.49913023     0.44200
Cu419      Cu  0.09529047  0.75309669  0.46180626     0.42000
Cu420      Cu  0.09574261  0.74975740  0.03877263     0.43900
N421        N  0.16162628  0.73886549  0.04323109    -0.33800
N422        N  0.13612055  0.73862826  0.05715027    -0.28000
C423        C  0.13983148  0.72545941  0.08286193    -0.04100
C424        C  0.16902568  0.71721796  0.08551106     0.08100
C425        C  0.18223177  0.72624848  0.06001391     0.01900
H426        H  0.12198059  0.71962615  0.09729854     0.09500
H427        H  0.20409745  0.72064697  0.05258595     0.08600
N428        N  0.05731324  0.75655334  0.01508748    -0.35200
N429        N  0.05731999  0.75775082  0.48656303    -0.27400
C430        C  0.02936628  0.76046672  0.47728677    -0.02700
C431        C  0.01089974  0.76119974  0.50118547     0.05900
C432        C  0.02938067  0.75870311  0.02481247     0.04000
H433        H  0.02292892  0.76109265  0.45476937     0.09100
H434        H  0.02302757  0.75770775  0.04737189     0.08000
N435        N  0.78963102  0.69878998  0.37673790    -0.02600
C436        C  0.81420032  0.70010307  0.39332990     0.00000
C437        C  0.83095657  0.67534655  0.38961137    -0.22900
C438        C  0.81627071  0.65827005  0.36999197    -0.23100
C439        C  0.79125739  0.67335839  0.36202401    -0.00100
H440        H  0.85172267  0.67032438  0.39992829     0.13700
H441        H  0.82364552  0.63758230  0.36158735     0.13700
N442        N  0.78433034  0.70077793  0.12122018    -0.02600
C443        C  0.80951489  0.70169630  0.10539142     0.00000
C444        C  0.82551429  0.67649087  0.10935997    -0.22900
C445        C  0.80972363  0.65954684  0.12838228    -0.23100
C446        C  0.78480821  0.67513993  0.13570388    -0.00100
H447        H  0.84649045  0.67107589  0.09958790     0.13700
H448        H  0.81631311  0.63863034  0.13688592     0.13700
N449        N  0.75385218  0.63174563  0.30706100    -0.26400
N450        N  0.75530031  0.65724883  0.29390381    -0.34300
C451        C  0.76584105  0.67708046  0.31273056     0.01900
C452        C  0.77140113  0.66331491  0.33885633     0.08000
C453        C  0.76364334  0.63464705  0.33429916    -0.05100
H454        H  0.77209803  0.69900429  0.30688877     0.08600
H455        H  0.76734572  0.61667457  0.34894576     0.09800
Cu456      Cu  0.74946735  0.66206348  0.24932574     0.44200
Cu457      Cu  0.74425205  0.59255551  0.28680927     0.42000
Cu458      Cu  0.73877598  0.59388300  0.21007123     0.43900
N459        N  0.75055517  0.65859161  0.20427316    -0.33800
N460        N  0.74707988  0.63370681  0.19042006    -0.28000
C461        C  0.75532504  0.63724110  0.16270925    -0.04100
C462        C  0.76426798  0.66566712  0.15861379     0.08100
C463        C  0.76085498  0.67862773  0.18545311     0.01900
H464        H  0.75788771  0.61959551  0.14748596     0.09500
H465        H  0.76900597  0.69976131  0.19169712     0.08600
N466        N  0.73607298  0.55563980  0.23387077    -0.35200
N467        N  0.73801909  0.55515604  0.26239104    -0.27400
C468        C  0.73676053  0.52741016  0.27156632    -0.02700
C469        C  0.73398781  0.50954519  0.24762318     0.05900
C470        C  0.73363014  0.52821357  0.22408517     0.04000
H471        H  0.73842560  0.52072630  0.29395995     0.09100
H472        H  0.73223112  0.52230213  0.20148314     0.08000
N473        N  0.85203872  0.74724669  0.05766341    -0.26400
N474        N  0.82657506  0.74697936  0.04380162    -0.34300
C475        C  0.80614101  0.73417175  0.06078019     0.01900
C476        C  0.81942196  0.72556283  0.08635084     0.08000
C477        C  0.84845084  0.73432563  0.08351473    -0.05100
H478        H  0.78453121  0.72792779  0.05333610     0.08600
H479        H  0.86642825  0.72854472  0.09772153     0.09800
Cu480      Cu  0.82296570  0.75343656  0.49935209     0.44200
Cu481      Cu  0.89261997  0.75729508  0.03903324     0.42000
Cu482      Cu  0.89366863  0.75681324  0.46223379     0.43900
N483        N  0.82812009  0.74591858  0.45519537    -0.33800
N484        N  0.85409691  0.74640456  0.44218391    -0.28000
C485        C  0.85173116  0.73329502  0.41636424    -0.04100
C486        C  0.82297306  0.72409693  0.41265350     0.08100
C487        C  0.80854837  0.73269068  0.43769008     0.01900
H488        H  0.87034814  0.72768729  0.40282740     0.09500
H489        H  0.78669294  0.72622357  0.44446062     0.08600
N490        N  0.93182943  0.76100049  0.48666574    -0.35200
N491        N  0.93147664  0.76123003  0.01530341    -0.27400
C492        C  0.95947109  0.76191741  0.02493519    -0.02700
C493        C  0.97833506  0.76226551  0.50119142     0.05900
C494        C  0.95993236  0.76178556  0.47731702     0.04000
H495        H  0.96570135  0.76122464  0.04750593     0.09100
H496        H  0.96647885  0.76103548  0.45480160     0.08000
C497        C  0.24341215  0.21728047  0.35919886    -0.04900
C498        C  0.26971907  0.22242285  0.37410947     0.01000
C499        C  0.27339955  0.24864664  0.38961412    -0.07500
C500        C  0.25066017  0.26926646  0.38890851    -0.04900
C501        C  0.22433557  0.26415326  0.37400867     0.01000
C502        C  0.22052657  0.23777859  0.35874822    -0.07500
C503        C  0.19332752  0.23023779  0.34135463     0.62900
H504        H  0.24095048  0.19703008  0.34752534     0.13600
H505        H  0.25311498  0.28947448  0.40065584     0.13600
C506        C  0.30018269  0.25573771  0.40781972     0.63200
F507        F  0.20149944  0.22444792  0.31307995    -0.22000
F508        F  0.17264018  0.25219578  0.34087570    -0.19300
F509        F  0.18035385  0.20566117  0.35300883    -0.19000
F510        F  0.31380352  0.28023484  0.39674912    -0.19100
F511        F  0.32058406  0.23353327  0.40876862    -0.19400
F512        F  0.29122800  0.26139808  0.43589487    -0.22100
C513        C  0.26883908  0.25176698  0.11160442    -0.04900
C514        C  0.26372284  0.22492931  0.12505825     0.01000
C515        C  0.23637894  0.21969091  0.13890847    -0.07500
C516        C  0.21455824  0.24129019  0.13773782    -0.04900
C517        C  0.21966948  0.26813525  0.12429110     0.01000
C518        C  0.24709059  0.27345205  0.11059380    -0.07500
C519        C  0.25429374  0.30099969  0.09398438     0.62900
H520        H  0.28988757  0.25542790  0.10109119     0.13600
H521        H  0.19345875  0.23758037  0.14813265     0.13600
C522        C  0.22937846  0.19217559  0.15564579     0.63200
F523        F  0.26409942  0.29378604  0.06654866    -0.22000
F524        F  0.27642109  0.31583235  0.10821179    -0.19300
F525        F  0.23043814  0.31931622  0.09082959    -0.19000
F526        F  0.25387959  0.17511014  0.16057696    -0.19100
F527        F  0.20888512  0.17610271  0.14044364    -0.19400
F528        F  0.21758984  0.19936814  0.18233679    -0.22100
C529        C  0.27298881  0.74098644  0.10828147    -0.04900
C530        C  0.26478639  0.76631421  0.12299334     0.01000
C531        C  0.23703739  0.76773907  0.13694297    -0.07500
C532        C  0.21826469  0.74345327  0.13560969    -0.04900
C533        C  0.22652819  0.71808725  0.12102714     0.01000
C534        C  0.25417413  0.71672813  0.10687406    -0.07500
C535        C  0.26351874  0.69001700  0.09003776     0.62900
H536        H  0.29445589  0.74047262  0.09805869     0.13600
H537        H  0.19683345  0.74392539  0.14590724     0.13600
C538        C  0.22746643  0.79458225  0.15341677     0.63200
F539        F  0.29029909  0.69413095  0.07620664    -0.22000
F540        F  0.24269943  0.68355142  0.06925486    -0.19300
F541        F  0.26637280  0.66662491  0.10852900    -0.19000
F542        F  0.22387508  0.81749936  0.13447138    -0.19100
F543        F  0.24844545  0.80189447  0.17375285    -0.19400
F544        F  0.20098569  0.79024265  0.16772730    -0.22100
C545        C  0.23483067  0.77330055  0.35969670    -0.04900
C546        C  0.26188372  0.76961924  0.37374160     0.01000
C547        C  0.26838733  0.74282558  0.38731934    -0.07500
C548        C  0.24778058  0.72013646  0.38542002    -0.04900
C549        C  0.22074961  0.72378107  0.37130250     0.01000
C550        C  0.21410793  0.75071222  0.35799441    -0.07500
C551        C  0.18599480  0.75664729  0.34133459     0.62900
H552        H  0.23028979  0.79389302  0.34923867     0.13600
H553        H  0.25231882  0.69956194  0.39590979     0.13600
C554        C  0.29612534  0.73731371  0.40468188     0.63200
F555        F  0.16995368  0.77779858  0.35556961    -0.22000
F556        F  0.16843110  0.73236987  0.33813502    -0.19300
F557        F  0.19307304  0.76665427  0.31393463    -0.19000
F558        F  0.28844008  0.72741878  0.43196577    -0.19100
F559        F  0.31327480  0.76184861  0.40816215    -0.19400
F560        F  0.31279228  0.71627956  0.39099685    -0.22100
C561        C  0.71518541  0.74412092  0.10995153    -0.04900
C562        C  0.72180761  0.76943141  0.12540635     0.01000
C563        C  0.74889851  0.77172166  0.14029521    -0.07500
C564        C  0.76887158  0.74839376  0.13885657    -0.04900
C565        C  0.76237348  0.72320085  0.12315033     0.01000
C566        C  0.73521251  0.72085861  0.10838900    -0.07500
C567        C  0.72777327  0.69414075  0.09066771     0.62900
H568        H  0.69419727  0.74297065  0.09895513     0.13600
H569        H  0.78994490  0.74963743  0.14968480     0.13600
C570        C  0.75658911  0.79867649  0.15754459     0.63200
F571        F  0.70133712  0.69729705  0.07613772    -0.22000
F572        F  0.72543753  0.67019786  0.10853985    -0.19300
F573        F  0.74958356  0.68913011  0.07037736    -0.19000
F574        F  0.73423816  0.80510235  0.17684467    -0.19100
F575        F  0.76048322  0.82195235  0.13906643    -0.19400
F576        F  0.78230320  0.79501419  0.17316646    -0.22100
C577        C  0.77446178  0.74620445  0.35846215    -0.04900
C578        C  0.76755415  0.72099452  0.37405773     0.01000
C579        C  0.74001245  0.71861380  0.38824539    -0.07500
C580        C  0.72006479  0.74189481  0.38629353    -0.04900
C581        C  0.72707154  0.76723274  0.37094787     0.01000
C582        C  0.75453139  0.76951647  0.35654601    -0.07500
C583        C  0.76263340  0.79634581  0.33919054     0.62900
H584        H  0.79582796  0.74745503  0.34809141     0.13600
H585        H  0.69878748  0.74071553  0.39684641     0.13600
C586        C  0.73198807  0.69179581  0.40565798     0.63200
F587        F  0.78899952  0.79279192  0.32448322    -0.22000
F588        F  0.76555717  0.81986683  0.35744181    -0.19300
F589        F  0.74096837  0.80223348  0.31907169    -0.19000
F590        F  0.75333212  0.68635983  0.42622611    -0.19100
F591        F  0.72980014  0.66810047  0.38752542    -0.19400
F592        F  0.70529135  0.69505528  0.41983322    -0.22100
C593        C  0.71414387  0.25129003  0.39022772    -0.04900
C594        C  0.71864436  0.22464709  0.37626827     0.01000
C595        C  0.74563443  0.21942094  0.36175204    -0.07500
C596        C  0.76748704  0.24104563  0.36228074    -0.04900
C597        C  0.76288498  0.26776084  0.37602108     0.01000
C598        C  0.73600335  0.27291523  0.39074560    -0.07500
C599        C  0.72943701  0.30032001  0.40774546     0.62900
H600        H  0.69338892  0.25494956  0.40127776     0.13600
H601        H  0.78821326  0.23743987  0.35116065     0.13600
C602        C  0.75233778  0.19200723  0.34485114     0.63200
F603        F  0.72091018  0.29287686  0.43555670    -0.22000
F604        F  0.70662007  0.31512049  0.39455343    -0.19300
F605        F  0.75332725  0.31876769  0.40989349    -0.19000
F606        F  0.72840147  0.17368820  0.34227453    -0.19100
F607        F  0.77483404  0.17710462  0.35845259    -0.19400
F608        F  0.76141296  0.19941650  0.31719747    -0.22100
C609        C  0.75225191  0.21581117  0.13725512    -0.04900
C610        C  0.72444815  0.22096868  0.12520299     0.01000
C611        C  0.71823641  0.24831750  0.11260666    -0.07500
C612        C  0.74003093  0.26996618  0.11335519    -0.04900
C613        C  0.76779443  0.26482482  0.12550538     0.01000
C614        C  0.77396577  0.23750259  0.13817697    -0.07500
C615        C  0.80257177  0.23037741  0.15349884     0.62900
H616        H  0.75657230  0.19480813  0.14697082     0.13600
H617        H  0.73573127  0.29095399  0.10359896     0.13600
C618        C  0.68954594  0.25554973  0.09752487     0.63200
F619        F  0.79641678  0.21814518  0.18022147    -0.22000
F620        F  0.82000904  0.25450299  0.15818864    -0.19300
F621        F  0.81827267  0.21057018  0.13714923    -0.19000
F622        F  0.67475545  0.27650737  0.11325982    -0.19100
F623        F  0.67129265  0.23177358  0.09426166    -0.19400
F624        F  0.69556307  0.26641876  0.07020249    -0.22100
N625        N  0.70267611  0.19824984  0.62785258    -0.02600
C626        C  0.67964620  0.19775166  0.64653633     0.00000
C627        C  0.66562422  0.17115042  0.64555246    -0.22900
C628        C  0.68093712  0.15450044  0.62590693    -0.23100
C629        C  0.70352461  0.17169656  0.61533642    -0.00100
H630        H  0.64651251  0.16451124  0.65795705     0.13700
H631        H  0.67570698  0.13249710  0.61951160     0.13700
N632        N  0.69547618  0.20347175  0.87727382    -0.02600
C633        C  0.66931911  0.20512168  0.86333668     0.00000
C634        C  0.65171943  0.18172100  0.87065185    -0.22900
C635        C  0.66769048  0.16502610  0.88968935    -0.23100
C636        C  0.69430147  0.17903790  0.89364996    -0.00100
H637        H  0.62995066  0.17689536  0.86244864     0.13700
H638        H  0.66052908  0.14502409  0.89983662     0.13700
N639        N  0.63195342  0.24744921  0.80895866    -0.26400
N640        N  0.65827358  0.24501308  0.79689009    -0.34300
C641        C  0.67677601  0.23265798  0.81605558     0.01900
C642        C  0.66121741  0.22668390  0.84117748     0.08000
C643        C  0.63292362  0.23633952  0.83582569    -0.05100
H644        H  0.69868235  0.22505359  0.81074498     0.08600
H645        H  0.61375890  0.23282727  0.84934524     0.09800
Cu646      Cu  0.66512039  0.24954997  0.75259943     0.44200
Cu647      Cu  0.59405305  0.25923474  0.78692005     0.42000
Cu648      Cu  0.59734145  0.25778418  0.71000638     0.43900
N649        N  0.66256748  0.24240335  0.70822798    -0.33800
N650        N  0.63789469  0.24473390  0.69319833    -0.28000
C651        C  0.64184418  0.23214365  0.66726744    -0.04100
C652        C  0.67029628  0.22158613  0.66562379     0.08100
C653        C  0.68280430  0.22844108  0.69201835     0.01900
H654        H  0.62430002  0.22802386  0.65200929     0.09500
H655        H  0.70358446  0.22047137  0.70021168     0.08600
N656        N  0.55825967  0.26526549  0.73258104    -0.35200
N657        N  0.55735595  0.26591938  0.76115421    -0.27400
C658        C  0.52921972  0.26862026  0.76987889    -0.02700
C659        C  0.51138378  0.26958330  0.74566027     0.05900
C660        C  0.53056120  0.26750494  0.72232185     0.04000
H661        H  0.52218968  0.26848672  0.79226344     0.09100
H662        H  0.52472716  0.26633414  0.69966775     0.08000
N663        N  0.74211157  0.13252971  0.55925524    -0.26400
N664        N  0.73895336  0.15805734  0.54645426    -0.34300
C665        C  0.72779255  0.17705431  0.56575942     0.01900
C666        C  0.72342980  0.16267356  0.59176910     0.08000
C667        C  0.73275793  0.13456623  0.58677037    -0.05100
H668        H  0.72003114  0.19858423  0.56028858     0.08600
H669        H  0.73019918  0.11622611  0.60121847     0.09800
Cu670      Cu  0.74186972  0.16376714  0.00193038     0.44200
Cu671      Cu  0.75211775  0.09397328  0.53813645     0.42000
Cu672      Cu  0.74625011  0.09542848  0.96172151     0.43900
N673        N  0.73572984  0.16058955  0.95740202    -0.33800
N674        N  0.73645942  0.13564211  0.94325129    -0.28000
C675        C  0.72511122  0.13970104  0.91672691    -0.04100
C676        C  0.71704939  0.16852270  0.91375705     0.08100
C677        C  0.72416863  0.18114593  0.93999047     0.01900
H678        H  0.72002523  0.12228878  0.90186380     0.09500
H679        H  0.71772094  0.20254678  0.94719803     0.08600
N680        N  0.75320407  0.05710204  0.98481888    -0.35200
N681        N  0.75554203  0.05663348  0.51319824    -0.27400
C682        C  0.75847113  0.02898092  0.52224538    -0.02700
C683        C  0.75793068  0.01105720  0.99833459     0.05900
C684        C  0.75469702  0.02962847  0.97489144     0.04000
H685        H  0.76012133  0.02245713  0.54468601     0.09100
H686        H  0.75278300  0.02358225  0.95236350     0.08000
N687        N  0.70569664  0.79012933  0.86957658    -0.02600
C688        C  0.70537430  0.81501024  0.88529548     0.00000
C689        C  0.67997015  0.83053355  0.87975903    -0.22900
C690        C  0.66368852  0.81431565  0.86067842    -0.23100
C691        C  0.67984685  0.78957988  0.85487248    -0.00100
H692        H  0.67336346  0.85083936  0.88958501     0.13700
H693        H  0.64219436  0.81981791  0.85220446     0.13700
N694        N  0.70044694  0.79223123  0.62626036    -0.02600
C695        C  0.70080915  0.81716781  0.61060554     0.00000
C696        C  0.67572025  0.83322095  0.61608576    -0.22900
C697        C  0.65895452  0.81725978  0.63515795    -0.23100
C698        C  0.67457199  0.79217911  0.64101904    -0.00100
H699        H  0.66973974  0.85380150  0.60640879     0.13700
H700        H  0.63767960  0.82333572  0.64385525     0.13700
N701        N  0.63193910  0.74952345  0.69162644    -0.26400
N702        N  0.65811774  0.74826335  0.70402567    -0.34300
C703        C  0.67826430  0.76000295  0.68599130     0.01900
C704        C  0.66400419  0.76962195  0.66129774     0.08000
C705        C  0.63469931  0.76251788  0.66571266    -0.05100
H706        H  0.70072780  0.76456622  0.69208280     0.08600
H707        H  0.61629758  0.76902531  0.65237296     0.09800
Cu708      Cu  0.66352897  0.74021867  0.74802446     0.44200
Cu709      Cu  0.59251035  0.73972950  0.71240942     0.42000
Cu710      Cu  0.59446209  0.73666766  0.78933117     0.43900
N711        N  0.66079379  0.74632917  0.79258496    -0.33800
N712        N  0.63563637  0.74594264  0.80711407    -0.28000
C713        C  0.64001512  0.75800720  0.83320126    -0.04100
C714        C  0.66922190  0.76639128  0.83546458     0.08100
C715        C  0.68177404  0.75843221  0.80930692     0.01900
H716        H  0.62245724  0.76348604  0.84809016     0.09500
H717        H  0.70331652  0.76469387  0.80143810     0.08600
N718        N  0.55542390  0.73224137  0.76598519    -0.35200
N719        N  0.55499080  0.73317362  0.73740455    -0.27400
C720        C  0.52695241  0.73122530  0.72826104    -0.02700
C721        C  0.50869416  0.72911577  0.75221384     0.05900
C722        C  0.52752209  0.72978854  0.77582307     0.04000
H723        H  0.52030745  0.73226521  0.70581960     0.09100
H724        H  0.52135982  0.72936646  0.79845342     0.08000
N725        N  0.74398659  0.85532740  0.93983891    -0.26400
N726        N  0.74063843  0.83024985  0.95346782    -0.34300
C727        C  0.73007169  0.81049155  0.93458713     0.01900
C728        C  0.72651149  0.82378633  0.90786866     0.08000
C729        C  0.73554988  0.85214707  0.91219414    -0.05100
H730        H  0.72191727  0.78926724  0.94074658     0.08600
H731        H  0.73284408  0.87001424  0.89720686     0.09800
Cu732      Cu  0.74302794  0.82635187  0.99844329     0.44200
Cu733      Cu  0.75255190  0.89494007  0.95987234     0.42000
Cu734      Cu  0.75399825  0.89502784  0.53686877     0.43900
N735        N  0.73920965  0.83096379  0.54346904    -0.33800
N736        N  0.74282705  0.85605639  0.55691596    -0.28000
C737        C  0.73279910  0.85353465  0.58417413    -0.04100
C738        C  0.72261118  0.82554350  0.58841293     0.08100
C739        C  0.72706199  0.81179199  0.56212262     0.01900
H740        H  0.73011340  0.87161641  0.59885862     0.09500
H741        H  0.71860733  0.79075160  0.55595380     0.08600
N742        N  0.75786479  0.93284886  0.51249640    -0.35200
N743        N  0.75689827  0.93298831  0.98382449    -0.27400
C744        C  0.75741960  0.96067570  0.97432674    -0.02700
C745        C  0.75881308  0.97893916  0.99811140     0.05900
C746        C  0.75910669  0.96047666  0.52192377     0.04000
H747        H  0.75604365  0.96703792  0.95182069     0.09100
H748        H  0.75918826  0.96674233  0.54447478     0.08000
N749        N  0.28325258  0.79259966  0.87178400    -0.02600
C750        C  0.30715398  0.79316999  0.85421041     0.00000
C751        C  0.32111147  0.81975696  0.85592282    -0.22900
C752        C  0.30490482  0.83630679  0.87492758    -0.23100
C753        C  0.28184601  0.81907550  0.88443510    -0.00100
H754        H  0.34080022  0.82644139  0.84445017     0.13700
H755        H  0.30994122  0.85822104  0.88175161     0.13700
N756        N  0.28607147  0.78959687  0.62516937    -0.02600
C757        C  0.31134575  0.78903607  0.64081112     0.00000
C758        C  0.32752778  0.81398816  0.63595671    -0.22900
C759        C  0.31178926  0.83045550  0.61661038    -0.23100
C760        C  0.28671026  0.81484049  0.60992708    -0.00100
H761        H  0.34849643  0.81964514  0.64552356     0.13700
H762        H  0.31841546  0.85118493  0.60762598     0.13700
N763        N  0.35242458  0.74571007  0.69163179    -0.26400
N764        N  0.32642342  0.74623260  0.70457799    -0.34300
C765        C  0.30659408  0.75825950  0.68650194     0.01900
C766        C  0.32082312  0.76606598  0.66109506     0.08000
C767        C  0.34980952  0.75768839  0.66522724    -0.05100
H768        H  0.28461023  0.76453622  0.69297114     0.08600
H769        H  0.36830017  0.76302395  0.65139003     0.09800
Cu770      Cu  0.32131574  0.74030422  0.74894291     0.44200
Cu771      Cu  0.39193388  0.73600106  0.71235921     0.42000
Cu772      Cu  0.39055107  0.73657176  0.78940852     0.43900
N773        N  0.32468301  0.74782656  0.79318695    -0.33800
N774        N  0.34996672  0.74736379  0.80737629    -0.28000
C775        C  0.34623523  0.76046387  0.83306674    -0.04100
C776        C  0.31729188  0.76943222  0.83541714     0.08100
C777        C  0.30421183  0.76097655  0.80977297     0.01900
H778        H  0.36405593  0.76608823  0.84750870     0.09500
H779        H  0.28271126  0.76755696  0.80211315     0.08600
N780        N  0.42933856  0.73133544  0.76596283    -0.35200
N781        N  0.42973763  0.73113336  0.73736707    -0.27400
C782        C  0.45785493  0.72948405  0.72822320    -0.02700
C783        C  0.47611198  0.72867610  0.75220326     0.05900
C784        C  0.45723579  0.72982434  0.77580365     0.04000
H785        H  0.46454338  0.72984601  0.70573995     0.09100
H786        H  0.46334632  0.73056278  0.79840499     0.08000
N787        N  0.24727137  0.85663557  0.55666015    -0.26400
N788        N  0.24940524  0.83159437  0.54280278    -0.34300
C789        C  0.26049909  0.81148365  0.56108544     0.01900
C790        C  0.26568241  0.82454288  0.58760281     0.08000
C791        C  0.25708959  0.85310964  0.58381715    -0.05100
H792        H  0.26761140  0.79004307  0.55456673     0.08600
H793        H  0.26061715  0.87076031  0.59882839     0.09800
Cu794      Cu  0.24434470  0.82792749  0.99808518     0.44200
Cu795      Cu  0.23775653  0.89654354  0.53756294     0.42000
Cu796      Cu  0.23465274  0.89735106  0.96108743     0.43900
N797        N  0.24662985  0.83305159  0.95320117    -0.33800
N798        N  0.24351367  0.85848073  0.94020986    -0.28000
C799        C  0.25238368  0.85613619  0.91257857    -0.04100
C800        C  0.26140956  0.82792168  0.90763354     0.08100
C801        C  0.25730760  0.81379995  0.93385783     0.01900
H802        H  0.25515102  0.87440224  0.89806071     0.09500
H803        H  0.26512862  0.79235182  0.93943239     0.08600
N804        N  0.23190807  0.93498567  0.98550794    -0.35200
N805        N  0.23302799  0.93480250  0.51395494    -0.27400
C806        C  0.23262806  0.96243713  0.52350444    -0.02700
C807        C  0.23106613  0.98084775  0.99984414     0.05900
C808        C  0.23068486  0.96260867  0.97606203     0.04000
H809        H  0.23413677  0.96869981  0.54600382     0.09100
H810        H  0.23028189  0.96892793  0.95350393     0.08000
N811        N  0.28703480  0.20322062  0.62330632    -0.02600
C812        C  0.31350970  0.20410444  0.63672577     0.00000
C813        C  0.33021915  0.18020400  0.62917370    -0.22900
C814        C  0.31338806  0.16401467  0.61046991    -0.23100
C815        C  0.28714322  0.17878392  0.60696845    -0.00100
H816        H  0.35207062  0.17486025  0.63682011     0.13700
H817        H  0.31984567  0.14396924  0.60004012     0.13700
N818        N  0.29214643  0.20062498  0.87309613    -0.02600
C819        C  0.31632320  0.20046638  0.85584556     0.00000
C820        C  0.33173643  0.17484959  0.85944538    -0.22900
C821        C  0.31609031  0.15844773  0.87913438    -0.23100
C822        C  0.29192291  0.17482791  0.88717886    -0.00100
H823        H  0.35179171  0.16850169  0.84844608     0.13700
H824        H  0.32190187  0.13705203  0.88697490     0.13700
N825        N  0.24915761  0.13482288  0.93978918    -0.26400
N826        N  0.25080442  0.16029617  0.95288204    -0.34300
C827        C  0.26338099  0.17958245  0.93463802     0.01900
C828        C  0.27023542  0.16542707  0.90906493     0.08000
C829        C  0.26089984  0.13716617  0.91318824    -0.05100
H830        H  0.27031536  0.20116475  0.94079441     0.08600
H831        H  0.26500855  0.11896607  0.89898667     0.09800
Cu832      Cu  0.24397134  0.16549745  0.99721545     0.44200
Cu833      Cu  0.23809303  0.09600318  0.95993257     0.42000
Cu834      Cu  0.23693831  0.09722517  0.53679012     0.43900
N835        N  0.24732483  0.16215209  0.54202637    -0.33800
N836        N  0.24524624  0.13719719  0.55610042    -0.28000
C837        C  0.25536012  0.14085759  0.58314448    -0.04100
C838        C  0.26416707  0.16942057  0.58654502     0.08100
C839        C  0.25861362  0.18231435  0.56000539     0.01900
H840        H  0.25962940  0.12318616  0.59801022     0.09500
H841        H  0.26630607  0.20343129  0.55303797     0.08600
N842        N  0.23366655  0.05892513  0.51317803    -0.35200
N843        N  0.23364366  0.05863158  0.98470885    -0.27400
C844        C  0.23253434  0.03091933  0.97557960    -0.02700
C845        C  0.23144319  0.01292254  0.99960414     0.05900
C846        C  0.23236573  0.03140831  0.52304964     0.04000
H847        H  0.23316048  0.02436809  0.95311538     0.09100
H848        H  0.23243772  0.02537027  0.54568859     0.08000
N849        N  0.35457914  0.24641643  0.68830361    -0.26400
N850        N  0.32912066  0.24402558  0.70212843    -0.34300
C851        C  0.30929257  0.23171211  0.68425456     0.01900
C852        C  0.32304804  0.22575908  0.65816135     0.08000
C853        C  0.35167007  0.23535028  0.66159555    -0.05100
H854        H  0.28776548  0.22417989  0.69099207     0.08600
H855        H  0.36983548  0.23180716  0.64682244     0.09800
Cu856      Cu  0.32478393  0.24883132  0.74678111     0.44200
Cu857      Cu  0.39434574  0.25806823  0.70721969     0.42000
Cu858      Cu  0.39460185  0.25744014  0.78416694     0.43900
N859        N  0.32984400  0.24258405  0.79118127    -0.33800
N860        N  0.35557428  0.24489752  0.80435170    -0.28000
C861        C  0.35338960  0.23309741  0.83088652    -0.04100
C862        C  0.32492782  0.22315032  0.83493698     0.08100
C863        C  0.31057633  0.22953063  0.80928315     0.01900
H864        H  0.37194333  0.22925227  0.84503195     0.09500
H865        H  0.28903383  0.22184948  0.80292015     0.08600
N866        N  0.43240973  0.26476852  0.75967694    -0.35200
N867        N  0.43245541  0.26482255  0.73108457    -0.27400
C868        C  0.46040369  0.26755279  0.72153586    -0.02700
C869        C  0.47883556  0.26928082  0.74533370     0.05900
C870        C  0.46027567  0.26753620  0.76912532     0.04000
H871        H  0.46689411  0.26712930  0.69899745     0.09100
H872        H  0.46664404  0.26702191  0.79166246     0.08000
N873        N  0.19739631  0.28968176  0.62506877    -0.02600
C874        C  0.19685575  0.31389655  0.64170830     0.00000
C875        C  0.17045720  0.32838741  0.63822240    -0.22900
C876        C  0.15395371  0.31218852  0.61921244    -0.23100
C877        C  0.17103822  0.28859777  0.61145583    -0.00100
H878        H  0.16367854  0.34821780  0.64886093     0.13700
H879        H  0.13206742  0.31732589  0.61152160     0.13700
N880        N  0.20180869  0.28614121  0.87517879    -0.02600
C881        C  0.20268624  0.31259164  0.86232284     0.00000
C882        C  0.17939259  0.32946343  0.87172209    -0.22900
C883        C  0.16364313  0.31278697  0.89104755    -0.23100
C884        C  0.17808847  0.28647109  0.89304393    -0.00100
H885        H  0.17419101  0.35138237  0.86498104     0.13700
H886        H  0.14413985  0.31935551  0.90284926     0.13700
N887        N  0.13163030  0.24580537  0.55883075    -0.26400
N888        N  0.15776255  0.24734243  0.54619019    -0.34300
C889        C  0.17689980  0.25993360  0.56458980     0.01900
C890        C  0.16195554  0.26695849  0.58978234     0.08000
C891        C  0.13337917  0.25768346  0.58529118    -0.05100
H892        H  0.19891826  0.26677857  0.55870755     0.08600
H893        H  0.11458771  0.26183706  0.59911533     0.09800
Cu894      Cu  0.16369871  0.24125248  0.00203027     0.44200
Cu895      Cu  0.09291699  0.23412935  0.53807416     0.42000
Cu896      Cu  0.09574383  0.23202217  0.96086594     0.43900
N897        N  0.16118001  0.24544964  0.95718839    -0.33800
N898        N  0.13633421  0.24263279  0.94255579    -0.28000
C899        C  0.14029392  0.25335734  0.91576501    -0.04100
C900        C  0.16895204  0.26326581  0.91311170     0.08100
C901        C  0.18155061  0.25788197  0.93985573     0.01900
H902        H  0.12261136  0.25705526  0.90054346     0.09500
H903        H  0.20246985  0.26615413  0.94737759     0.08600
N904        N  0.05667570  0.22693304  0.98404707    -0.35200
N905        N  0.05584895  0.22760606  0.51271852    -0.27400
C906        C  0.02762144  0.22579105  0.52148146    -0.02700
C907        C  0.00974224  0.22385893  0.99713214     0.05900
C908        C  0.02899826  0.22468217  0.97381781     0.04000
H909        H  0.02051832  0.22686856  0.54381828     0.09100
H910        H  0.02328112  0.22462781  0.95110518     0.08000
N911        N  0.24328907  0.35347084  0.80886732    -0.26400
N912        N  0.24054944  0.32837620  0.79524450    -0.34300
C913        C  0.22893920  0.30868396  0.81366966     0.01900
C914        C  0.22382870  0.32214633  0.83998404     0.08000
C915        C  0.23323720  0.35044707  0.83606483    -0.05100
H916        H  0.22121309  0.28742427  0.80729503     0.08600
H917        H  0.23005466  0.36830834  0.85090800     0.09800
Cu918      Cu  0.24424384  0.32444960  0.75051287     0.44200
Cu919      Cu  0.25335089  0.39283708  0.78900756     0.42000
Cu920      Cu  0.25195854  0.39360776  0.71203694     0.43900
N921        N  0.23863146  0.32918441  0.70606303    -0.33800
N922        N  0.24057229  0.35443035  0.69247142    -0.28000
C923        C  0.22905219  0.35157883  0.66585741    -0.04100
C924        C  0.21972022  0.32320853  0.66225013     0.08100
C925        C  0.22618202  0.30962111  0.68819358     0.01900
H926        H  0.22481326  0.36956588  0.65136652     0.09500
H927        H  0.21876569  0.28832744  0.69490623     0.08600
N928        N  0.25736055  0.43119175  0.73651145    -0.35200
N929        N  0.25761559  0.43094044  0.76510646    -0.27400
C930        C  0.25912045  0.45848599  0.77480484    -0.02700
C931        C  0.25990655  0.47700489  0.75113710     0.05900
C932        C  0.25881612  0.45889614  0.72722390     0.04000
H933        H  0.25888846  0.46458578  0.79740200     0.09100
H934        H  0.25817460  0.46540434  0.70472426     0.08000
N935        N  0.78985199  0.28687950  0.62313755    -0.02600
C936        C  0.78949721  0.31322486  0.63610148     0.00000
C937        C  0.81328126  0.32963580  0.62694681    -0.22900
C938        C  0.82877830  0.31275124  0.60765962    -0.23100
C939        C  0.81369663  0.28679062  0.60545591    -0.00100
H940        H  0.81894483  0.35139510  0.63379326     0.13700
H941        H  0.84847778  0.31899590  0.59596180     0.13700
N942        N  0.78577545  0.28934124  0.87370638    -0.02600
C943        C  0.78590951  0.31329817  0.85664448     0.00000
C944        C  0.81226575  0.32804420  0.85947276    -0.22900
C945        C  0.82918774  0.31223784  0.87845950    -0.23100
C946        C  0.81239919  0.28861177  0.88682448    -0.00100
H947        H  0.81877054  0.34773356  0.84833533     0.13700
H948        H  0.85121346  0.31757582  0.88562545     0.13700
N949        N  0.74799353  0.35449286  0.68850686    -0.26400
N950        N  0.74958779  0.32920241  0.70206253    -0.34300
C951        C  0.76165097  0.30949457  0.68402194     0.01900
C952        C  0.76823129  0.32315413  0.65808526     0.08000
C953        C  0.75925189  0.35156848  0.66177624    -0.05100
H954        H  0.76844433  0.28793563  0.69049025     0.08600
H955        H  0.76330396  0.36948753  0.64712839     0.09800
Cu956      Cu  0.74333230  0.32449669  0.74649923     0.44200
Cu957      Cu  0.73762425  0.39391348  0.70787560     0.42000
Cu958      Cu  0.73591003  0.39304500  0.78466663     0.43900
N959        N  0.74626819  0.32836031  0.79130266    -0.33800
N960        N  0.74392347  0.35351368  0.80486630    -0.28000
C961        C  0.75387342  0.35041874  0.83203381    -0.04100
C962        C  0.76288536  0.32202102  0.83603819     0.08100
C963        C  0.75761472  0.30861342  0.80973507     0.01900
H964        H  0.75799521  0.36838875  0.84652475     0.09500
H965        H  0.76555766  0.28747429  0.80322994     0.08600
N966        N  0.73361804  0.43125798  0.76084225    -0.35200
N967        N  0.73396068  0.43163800  0.73225739    -0.27400
C968        C  0.73371499  0.45941927  0.72308814    -0.02700
C969        C  0.73331028  0.47738714  0.74712052     0.05900
C970        C  0.73326237  0.45875412  0.77067949     0.04000
H971        H  0.73463637  0.46602603  0.70062311     0.09100
H972        H  0.73358908  0.46470826  0.79331157     0.08000
N973        N  0.85360942  0.24586011  0.93815574    -0.26400
N974        N  0.82801829  0.24771057  0.95181665    -0.34300
C975        C  0.80825546  0.26033776  0.93408979     0.01900
C976        C  0.82219242  0.26705882  0.90827632     0.08000
C977        C  0.85084980  0.25759944  0.91168301    -0.05100
H978        H  0.78655280  0.26739846  0.94078296     0.08600
H979        H  0.86906800  0.26149921  0.89705010     0.09800
Cu980      Cu  0.82316792  0.24144355  0.99619403     0.44200
Cu981      Cu  0.89321648  0.23383296  0.95714166     0.42000
Cu982      Cu  0.89228608  0.23152358  0.53430121     0.43900
N983        N  0.82743398  0.24534190  0.54093661    -0.33800
N984        N  0.85291374  0.24252980  0.55444808    -0.28000
C985        C  0.85038669  0.25360844  0.58120652    -0.04100
C986        C  0.82197478  0.26371021  0.58500726     0.08100
C987        C  0.80799687  0.25806711  0.55900454     0.01900
H988        H  0.86880871  0.25730217  0.59555035     0.09500
H989        H  0.78676729  0.26634617  0.55236984     0.08600
N990        N  0.93063080  0.22648721  0.51023590    -0.35200
N991        N  0.93099391  0.22725786  0.98155309    -0.27400
C992        C  0.95913686  0.22547388  0.97240757    -0.02700
C993        C  0.97722378  0.22372491  0.99645835     0.05900
C994        C  0.95840663  0.22432630  0.52008552     0.04000
H995        H  0.96596501  0.22654512  0.94998487     0.09100
H996        H  0.96439577  0.22424655  0.54273047     0.08000
N997        N  0.20592533  0.69456468  0.61977078    -0.02600
C998        C  0.18005468  0.69448466  0.60512963     0.00000
C999        C  0.16449748  0.66935293  0.61097586    -0.22900
C1000       C  0.18124068  0.65349563  0.63004289    -0.23100
C1001       C  0.20625620  0.66967774  0.63554498    -0.00100
H1002       H  0.14313842  0.66333757  0.60251873     0.13700
H1003       H  0.17513888  0.63302776  0.63993802     0.13700
N1004       N  0.19945095  0.70077057  0.87293204    -0.02600
C1005       C  0.17545003  0.70001206  0.89040554     0.00000
C1006       C  0.16103677  0.67374769  0.88774747    -0.22900
C1007       C  0.17711925  0.65751152  0.86839798    -0.23100
C1008       C  0.20058985  0.67458096  0.85961924    -0.00100
H1009       H  0.14137160  0.66689228  0.89915936     0.13700
H1010       H  0.17204810  0.63570719  0.86126331     0.13700
N1011       N  0.24619849  0.63153987  0.69096590    -0.26400
N1012       N  0.24268027  0.65697327  0.70378508    -0.34300
C1013       C  0.23141687  0.67592279  0.68443597     0.01900
C1014       C  0.22749224  0.66167669  0.65831919     0.08000
C1015       C  0.23706524  0.63363190  0.66342678    -0.05100
H1016       H  0.22307020  0.69720675  0.68998373     0.08600
H1017       H  0.23440336  0.61525392  0.64912484     0.09800
Cu1018     Cu  0.24524080  0.66227302  0.74859433     0.44200
Cu1019     Cu  0.25575797  0.59278248  0.71210706     0.42000
Cu1020     Cu  0.25221607  0.59348022  0.78856670     0.43900
N1021       N  0.23984628  0.65839758  0.79334595    -0.33800
N1022       N  0.24203988  0.63336940  0.80730408    -0.28000
C1023       C  0.23150573  0.63670372  0.83426404    -0.04100
C1024       C  0.22227228  0.66508772  0.83776118     0.08100
C1025       C  0.22801509  0.67831640  0.81137160     0.01900
H1026       H  0.22786550  0.61895730  0.84923292     0.09500
H1027       H  0.22069248  0.69959561  0.80466976     0.08600
N1028       N  0.25741819  0.55515960  0.76522115    -0.35200
N1029       N  0.25878104  0.55503615  0.73666445    -0.27400
C1030       C  0.26037948  0.52739276  0.72735863    -0.02700
C1031       C  0.26002277  0.50913931  0.75122125     0.05900
C1032       C  0.25815830  0.52753199  0.77490446     0.04000
H1033       H  0.26101171  0.52104902  0.70483805     0.09100
H1034       H  0.25663900  0.52128833  0.79744326     0.08000
N1035       N  0.13478061  0.74312211  0.94141734    -0.26400
N1036       N  0.16056699  0.74170492  0.95460655    -0.34300
C1037       C  0.18031968  0.72952826  0.93649899     0.01900
C1038       C  0.16624125  0.72276156  0.91083769     0.08000
C1039       C  0.13745004  0.73166012  0.91483502    -0.05100
H1040       H  0.20204237  0.72237876  0.94296000     0.08600
H1041       H  0.11904644  0.72698764  0.90076587     0.09800
Cu1042     Cu  0.16536068  0.74688438  0.99906486     0.44200
Cu1043     Cu  0.09514235  0.75298483  0.96171712     0.42000
Cu1044     Cu  0.09586421  0.74998355  0.53885132     0.43900
N1045       N  0.16176341  0.73911068  0.54330592    -0.33800
N1046       N  0.13625745  0.73887956  0.55722700    -0.28000
C1047       C  0.13996630  0.72569441  0.58293125    -0.04100
C1048       C  0.16915617  0.71743325  0.58557007     0.08100
C1049       C  0.18236421  0.72647662  0.56008049     0.01900
H1050       H  0.12211215  0.71984533  0.59735795     0.09500
H1051       H  0.20421991  0.72084859  0.55264124     0.08600
N1052       N  0.05742748  0.75670822  0.51514552    -0.35200
N1053       N  0.05718831  0.75763106  0.98650607    -0.27400
C1054       C  0.02923249  0.76041307  0.97725495    -0.02700
C1055       C  0.01078717  0.76115529  0.00117008     0.05900
C1056       C  0.02948154  0.75881425  0.52484621     0.04000
H1057       H  0.02277907  0.76109337  0.95474355     0.09100
H1058       H  0.02311146  0.75782229  0.54740100     0.08000
N1059       N  0.78967628  0.69875107  0.87691210    -0.02600
C1060       C  0.81418232  0.70009865  0.89358557     0.00000
C1061       C  0.83091245  0.67530117  0.89003711    -0.22900
C1062       C  0.81626984  0.65816080  0.87043876    -0.23100
C1063       C  0.79131041  0.67325375  0.86231147    -0.00100
H1064       H  0.85163522  0.67029703  0.90044617     0.13700
H1065       H  0.82364827  0.63742903  0.86214517     0.13700
N1066       N  0.78440458  0.70060399  0.62124411    -0.02600
C1067       C  0.80961369  0.70147665  0.60544955     0.00000
C1068       C  0.82563389  0.67630610  0.60955761    -0.22900
C1069       C  0.80983500  0.65943584  0.62863701    -0.23100
C1070       C  0.78489404  0.67503793  0.63585123    -0.00100
H1071       H  0.84663402  0.67087008  0.59984724     0.13700
H1072       H  0.81643374  0.63856655  0.63724869     0.13700
N1073       N  0.75412744  0.63158396  0.80722409    -0.26400
N1074       N  0.75552071  0.65710761  0.79409913    -0.34300
C1075       C  0.76597730  0.67694610  0.81296512     0.01900
C1076       C  0.77154759  0.66316449  0.83908119     0.08000
C1077       C  0.76387701  0.63447972  0.83447878    -0.05100
H1078       H  0.77216352  0.69889945  0.80716142     0.08600
H1079       H  0.76759477  0.61650152  0.84911457     0.09800
Cu1080     Cu  0.74970031  0.66197308  0.74951800     0.44200
Cu1081     Cu  0.74459522  0.59239577  0.78692423     0.42000
Cu1082     Cu  0.73890930  0.59385130  0.71020519     0.43900
N1083       N  0.75070570  0.65855166  0.70445220    -0.33800
N1084       N  0.74714615  0.63368894  0.69058180    -0.28000
C1085       C  0.75532346  0.63723144  0.66285490    -0.04100
C1086       C  0.76432264  0.66563812  0.65876192     0.08100
C1087       C  0.76100792  0.67858094  0.68562473     0.01900
H1088       H  0.75783393  0.61958924  0.64761906     0.09500
H1089       H  0.76923449  0.69968564  0.69187084     0.08600
N1090       N  0.73633707  0.55556883  0.73393369    -0.35200
N1091       N  0.73834662  0.55503033  0.76244854    -0.27400
C1092       C  0.73711811  0.52726457  0.77156828    -0.02700
C1093       C  0.73430698  0.50944969  0.74759137     0.05900
C1094       C  0.73389458  0.52816382  0.72409434     0.04000
H1095       H  0.73882205  0.52053391  0.79394532     0.09100
H1096       H  0.73243641  0.52230011  0.70148341     0.08000
N1097       N  0.85216232  0.74690725  0.55761535    -0.26400
N1098       N  0.82669630  0.74662968  0.54375878    -0.34300
C1099       C  0.80625956  0.73385617  0.56075991     0.01900
C1100       C  0.81954301  0.72527879  0.58633983     0.08000
C1101       C  0.84857615  0.73402228  0.58348466    -0.05100
H1102       H  0.78464003  0.72762606  0.55333453     0.08600
H1103       H  0.86655243  0.72826925  0.59770420     0.09800
Cu1104     Cu  0.82284801  0.75380219  0.99939812     0.44200
Cu1105     Cu  0.89272844  0.75698441  0.53897459     0.42000
Cu1106     Cu  0.89354282  0.75712581  0.96229663     0.43900
N1107       N  0.82801482  0.74618705  0.95526147    -0.33800
N1108       N  0.85399544  0.74665300  0.94225771    -0.28000
C1109       C  0.85166127  0.73343165  0.91649277    -0.04100
C1110       C  0.82291900  0.72418210  0.91281023     0.08100
C1111       C  0.80846932  0.73286331  0.93780217     0.01900
H1112       H  0.87029329  0.72778015  0.90299380     0.09500
H1113       H  0.78662277  0.72638755  0.94459328     0.08600
N1114       N  0.93171231  0.76121524  0.98671289    -0.35200
N1115       N  0.93157779  0.76102824  0.51525641    -0.27400
C1116       C  0.95956258  0.76181546  0.52490645    -0.02700
C1117       C  0.97822795  0.76231763  0.00120608     0.05900
C1118       C  0.95980925  0.76191089  0.97734523     0.04000
H1119       H  0.96577874  0.76115534  0.54748171     0.09100
H1120       H  0.96633686  0.76114590  0.95482516     0.08000
C1121       C  0.24317763  0.21715022  0.85955964    -0.04900
C1122       C  0.26962625  0.22245956  0.87417259     0.01000
C1123       C  0.27345562  0.24886826  0.88932587    -0.07500
C1124       C  0.25076384  0.26953496  0.88848471    -0.04900
C1125       C  0.22430061  0.26426068  0.87387702     0.01000
C1126       C  0.22032306  0.23768392  0.85900794    -0.07500
C1127       C  0.19296978  0.22996191  0.84192634     0.62900
H1128       H  0.24059106  0.19675275  0.84817006     0.13600
H1129       H  0.25334566  0.28989063  0.89994911     0.13600
C1130       C  0.30033895  0.25609503  0.90733586     0.63200
F1131       F  0.20092895  0.22349692  0.81373977    -0.22000
F1132       F  0.17245051  0.25206119  0.84106783    -0.19300
F1133       F  0.17988271  0.20574156  0.85418480    -0.19000
F1134       F  0.31416173  0.28023756  0.89574510    -0.19100
F1135       F  0.32052680  0.23372418  0.90871891    -0.19400
F1136       F  0.29149494  0.26240412  0.93530669    -0.22100
C1137       C  0.26943770  0.25176462  0.61123195    -0.04900
C1138       C  0.26433764  0.22494150  0.62472035     0.01000
C1139       C  0.23698738  0.21969042  0.63854946    -0.07500
C1140       C  0.21514776  0.24127049  0.63734422    -0.04900
C1141       C  0.22024736  0.26810788  0.62387722     0.01000
C1142       C  0.24766667  0.27342545  0.61017530    -0.07500
C1143       C  0.25484153  0.30095550  0.59352363     0.62900
H1144       H  0.29049238  0.25543300  0.60073301     0.13600
H1145       H  0.19404897  0.23755837  0.64773941     0.13600
C1146       C  0.23000331  0.19217501  0.65529301     0.63200
F1147       F  0.26475265  0.29371025  0.56613206    -0.22000
F1148       F  0.27687983  0.31588628  0.60778195    -0.19300
F1149       F  0.23093668  0.31919048  0.59025489    -0.19000
F1150       F  0.25453052  0.17517080  0.66031033    -0.19100
F1151       F  0.20959616  0.17604145  0.64004404    -0.19400
F1152       F  0.21811975  0.19936119  0.68194462    -0.22100
C1153       C  0.27313671  0.74106354  0.60831879    -0.04900
C1154       C  0.26492655  0.76639868  0.62301513     0.01000
C1155       C  0.23717413  0.76782599  0.63695835    -0.07500
C1156       C  0.21840646  0.74353663  0.63563414    -0.04900
C1157       C  0.22667018  0.71816914  0.62105538     0.01000
C1158       C  0.25432054  0.71680578  0.60690969    -0.07500
C1159       C  0.26366262  0.69009699  0.59006741     0.62900
H1160       H  0.29460349  0.74054918  0.59809541     0.13600
H1161       H  0.19697138  0.74401195  0.64592360     0.13600
C1162       C  0.22758874  0.79467822  0.65340919     0.63200
F1163       F  0.29041106  0.69423491  0.57618346    -0.22000
F1164       F  0.24281039  0.68359832  0.56932550    -0.19300
F1165       F  0.26658044  0.66671745  0.60856503    -0.19000
F1166       F  0.22403051  0.81759079  0.63445370    -0.19100
F1167       F  0.24854211  0.80198887  0.67377089    -0.19400
F1168       F  0.20108514  0.79035410  0.66768312    -0.22100
C1169       C  0.23475889  0.77346917  0.85998996    -0.04900
C1170       C  0.26192462  0.76962023  0.87377770     0.01000
C1171       C  0.26849255  0.74269054  0.88705739    -0.07500
C1172       C  0.24784393  0.72003995  0.88508926    -0.04900
C1173       C  0.22070320  0.72384783  0.87121286     0.01000
C1174       C  0.21399051  0.75092564  0.85823020    -0.07500
C1175       C  0.18574651  0.75708231  0.84186471     0.62900
H1176       H  0.23016093  0.79416706  0.84976539     0.13600
H1177       H  0.25243794  0.69936374  0.89535366     0.13600
C1178       C  0.29633992  0.73699306  0.90419051     0.63200
F1179       F  0.16983269  0.77805632  0.85649448    -0.22000
F1180       F  0.16814960  0.73285424  0.83848726    -0.19300
F1181       F  0.19260399  0.76743827  0.81453957    -0.19000
F1182       F  0.28882696  0.72685239  0.93143085    -0.19100
F1183       F  0.31353070  0.76148247  0.90779017    -0.19400
F1184       F  0.31289719  0.71607252  0.89020646    -0.22100
C1185       C  0.71527365  0.74397224  0.60997085    -0.04900
C1186       C  0.72189374  0.76926602  0.62545632     0.01000
C1187       C  0.74898524  0.77154104  0.64034686    -0.07500
C1188       C  0.76897174  0.74822994  0.63885692    -0.04900
C1189       C  0.76247135  0.72305098  0.62313307     0.01000
C1190       C  0.73529969  0.72070872  0.60839108    -0.07500
C1191       C  0.72783527  0.69397644  0.59070130     0.62900
H1192       H  0.69427874  0.74282570  0.59898608     0.13600
H1193       H  0.79004352  0.74946039  0.64968982     0.13600
C1194       C  0.75664159  0.79844175  0.65769495     0.63200
F1195       F  0.70136262  0.69710797  0.57622974    -0.22000
F1196       F  0.72555574  0.67004270  0.60859267    -0.19300
F1197       F  0.74960202  0.68896465  0.57036702    -0.19000
F1198       F  0.73429042  0.80475127  0.67703327    -0.19100
F1199       F  0.76048570  0.82179876  0.63930902    -0.19400
F1200       F  0.78236996  0.79475948  0.67328972    -0.22100
C1201       C  0.77456998  0.74613114  0.85850291    -0.04900
C1202       C  0.76761561  0.72095637  0.87413346     0.01000
C1203       C  0.74007032  0.71864266  0.88832277    -0.07500
C1204       C  0.72014975  0.74194017  0.88631022    -0.04900
C1205       C  0.72719463  0.76723622  0.87091293     0.01000
C1206       C  0.75467033  0.76946290  0.85653105    -0.07500
C1207       C  0.76281331  0.79624806  0.83912680     0.62900
H1208       H  0.79594677  0.74733749  0.84814843     0.13600
H1209       H  0.69886014  0.74080108  0.89684290     0.13600
C1210       C  0.73201489  0.69187377  0.90579591     0.63200
F1211       F  0.78922820  0.79267005  0.82451043    -0.22000
F1212       F  0.76566752  0.81982187  0.85732193    -0.19300
F1213       F  0.74120599  0.80206398  0.81892682    -0.19000
F1214       F  0.75335366  0.68645743  0.92637488    -0.19100
F1215       F  0.72979887  0.66814134  0.88771362    -0.19400
F1216       F  0.70532451  0.69519795  0.91996712    -0.22100
C1217       C  0.71437130  0.25124997  0.89027525    -0.04900
C1218       C  0.71876809  0.22462983  0.87624285     0.01000
C1219       C  0.74564917  0.21941382  0.86153291    -0.07500
C1220       C  0.76750389  0.24103476  0.86193356    -0.04900
C1221       C  0.76300292  0.26772860  0.87574530     0.01000
C1222       C  0.73623086  0.27287464  0.89065883    -0.07500
C1223       C  0.72978762  0.30026361  0.90772825     0.62900
H1224       H  0.69369648  0.25489696  0.90147374     0.13600
H1225       H  0.78815421  0.23743790  0.85067453     0.13600
C1226       C  0.75223575  0.19200475  0.84457972     0.63200
F1227       F  0.72163417  0.29279497  0.93563914    -0.22000
F1228       F  0.70675680  0.31498675  0.89481161    -0.19300
F1229       F  0.75363661  0.31879676  0.90957778    -0.19000
F1230       F  0.72828358  0.17368220  0.84216566    -0.19100
F1231       F  0.77482816  0.17710173  0.85802565    -0.19400
F1232       F  0.76111726  0.19941941  0.81686700    -0.22100
C1233       C  0.75229344  0.21560782  0.63753189    -0.04900
C1234       C  0.72454201  0.22067896  0.62532967     0.01000
C1235       C  0.71835704  0.24796010  0.61257405    -0.07500
C1236       C  0.74015506  0.26960881  0.61324712    -0.04900
C1237       C  0.76786672  0.26455105  0.62554307     0.01000
C1238       C  0.77398558  0.23731986  0.63842777    -0.07500
C1239       C  0.80251697  0.23032470  0.65394010     0.62900
H1240       H  0.75658816  0.19465776  0.64737162     0.13600
H1241       H  0.73589389  0.29053152  0.60333665     0.13600
C1242       C  0.68969909  0.25513140  0.59740369     0.63200
F1243       F  0.79623500  0.21819857  0.68068299    -0.22000
F1244       F  0.81986565  0.25451538  0.65861927    -0.19300
F1245       F  0.81836065  0.21048189  0.63776803    -0.19000
F1246       F  0.67502503  0.27637266  0.61286427    -0.19100
F1247       F  0.67130613  0.23141805  0.59446440    -0.19400
F1248       F  0.69577190  0.26560798  0.56994255    -0.22100
loop_ 
_geom_bond_atom_site_label_1 
_geom_bond_atom_site_label_2 
_geom_bond_distance 
_geom_bond_site_symmetry_2 
_ccdc_geom_bond_type 
N1            C5   1.354       .  A
N1            C2   1.354       .  A
N1          C610   1.437       .  S
C2            C3   1.381       .  A
C2           C28   1.471       .  S
C3            C4   1.377       .  A
C3            H6   1.082       .  S
C4            C5   1.383       .  A
C4            H7   1.082       .  S
C5           C42   1.474       .  S
N8           C12   1.356       .  A
N8            C9   1.355       .  A
N8          C594   1.438       .  S
C9           C10   1.382       .  A
C9           C18   1.473       .  S
C10          C11   1.376       .  A
C10          H13   1.082       .  S
C11          C12   1.382       .  A
C11          H14   1.082       .  S
C12          C52   1.473       .  S
N15          C19   1.343       .  A
N15          N16   1.322       .  A
N15         Cu23   2.075       .  S
N16          C17   1.348       .  A
N16         Cu22   2.079       .  S
C17          C18   1.385       .  A
C17          H20   1.082       .  S
C18          C19   1.383       .  A
C19          H21   1.082       .  S
Cu22         N25   2.080       .  S
Cu23         N33   2.074       .  S
Cu24         N26   2.085       .  S
Cu24         N32   2.085       .  S
N25          C29   1.348       .  A
N25          N26   1.324       .  A
N26          C27   1.344       .  A
C27          C28   1.382       .  A
C27          H30   1.082       .  S
C28          C29   1.383       .  A
C29          H31   1.082       .  S
N32          C36   1.349       .  A
N32          N33   1.321       .  A
N33          C34   1.344       .  A
C34          C35   1.384       .  A
C34          H37   1.082       .  S
C35          C36   1.388       .  A
C35         C245   1.478       .  S
C36          H38   1.082       .  S
N39          C43   1.343       .  A
N39          N40   1.323       .  A
N39         Cu47   2.078       .  S
N40          C41   1.349       .  A
N40        Cu670   2.083       .  S
C41          C42   1.385       .  A
C41          H44   1.082       .  S
C42          C43   1.382       .  A
C43          H45   1.082       .  S
Cu46         N49   2.083       .  S
Cu46        N664   2.083       .  S
Cu47         N57   2.078       .  S
Cu48         N50   2.087       .  S
Cu48         N56   2.086       .  S
N49          C53   1.349       .  A
N49          N50   1.323       .  A
N50          C51   1.344       .  A
C51          C52   1.384       .  A
C51          H54   1.082       .  S
C52          C53   1.384       .  A
C53          H55   1.081       .  S
N56          C60   1.348       .  A
N56         N681   1.321       .  A
N57          C58   1.347       .  A
N57         N680   1.321   1_554  A
C58         C683   1.385   1_554  A
C58          H61   1.082       .  S
C59          C60   1.387       .  A
C59         C682   1.385       .  A
C59         C121   1.480   1_545  S
C60          H62   1.082       .  S
N63          C67   1.358       .  A
N63          C64   1.358       .  A
N63         C581   1.439       .  S
C64          C65   1.382       .  A
C64         C104   1.476       .  S
C65          C66   1.373       .  A
C65          H68   1.082       .  S
C66          C67   1.382       .  A
C66          H69   1.082       .  S
C67          C90   1.477       .  S
N70          C74   1.357       .  A
N70          C71   1.356       .  A
N70         C562   1.439       .  S
C71          C72   1.381       .  A
C71         C114   1.474       .  S
C72          C73   1.375       .  A
C72          H75   1.082       .  S
C73          C74   1.382       .  A
C73          H76   1.082       .  S
C74          C80   1.477       .  S
N77          C81   1.343       .  A
N77          N78   1.322       .  A
N77         Cu85   2.079       .  S
N78          C79   1.348       .  A
N78         Cu84   2.081       .  S
C79          C80   1.385       .  A
C79          H82   1.079       .  S
C80          C81   1.384       .  A
C81          H83   1.082       .  S
Cu84         N87   2.082       .  S
Cu85         N95   2.078       .  S
Cu86         N88   2.088       .  S
Cu86         N94   2.087       .  S
N87          C91   1.349       .  A
N87          N88   1.323       .  A
N88          C89   1.343       .  A
C89          C90   1.385       .  A
C89          H92   1.082       .  S
C90          C91   1.385       .  A
C91          H93   1.081       .  S
N94          C98   1.349       .  A
N94          N95   1.321       .  A
N95          C96   1.345       .  A
C96          C97   1.384       .  A
C96          H99   1.082       .  S
C97          C98   1.388       .  A
C97         C159   1.479       .  S
C98         H100   1.082       .  S
N101        C105   1.343       .  A
N101        N102   1.323       .  A
N101       Cu109   2.083       .  S
N102        C103   1.350       .  A
N102       Cu108   2.089       .  S
C103        C104   1.387       .  A
C103        H106   1.082       .  S
C104        C105   1.384       .  A
C105        H107   1.082       .  S
Cu108       N735   2.088       .  S
Cu109       N119   2.083       .  S
Cu110       N112   2.080       .  S
Cu110       N118   2.079       .  S
N111        C115   1.350       .  A
N111        N112   1.323       .  A
N111       Cu732   2.088   1_554  S
N112        C113   1.343       .  A
C113        C114   1.383       .  A
C113        H116   1.082       .  S
C114        C115   1.385       .  A
C115        H117   1.081       .  S
N118        C122   1.347       .  A
N118        N743   1.321   1_554  A
N119        C120   1.348       .  A
N119        N742   1.321       .  A
C120        C121   1.387       .  A
C120        H123   1.082       .  S
C121        C746   1.386       .  A
C122        C745   1.386   1_554  A
C122        H124   1.082       .  S
N125        C129   1.354       .  A
N125        C126   1.354       .  A
N125        C546   1.436       .  S
C126        C127   1.381       .  A
C126        C152   1.471       .  S
C127        C128   1.376       .  A
C127        H130   1.082       .  S
C128        C129   1.384       .  A
C128        H131   1.082       .  S
C129        C176   1.474       .  S
N132        C136   1.359       .  A
N132        C133   1.358       .  A
N132        C530   1.440       .  S
C133        C134   1.381       .  A
C133        C142   1.477       .  S
C134        C135   1.374       .  A
C134        H137   1.082       .  S
C135        C136   1.382       .  A
C135        H138   1.083       .  S
C136        C166   1.476       .  S
N139        C143   1.344       .  A
N139        N140   1.322       .  A
N139       Cu147   2.084       .  S
N140        C141   1.348       .  A
N140       Cu146   2.080       .  S
C141        C142   1.385       .  A
C141        H144   1.081       .  S
C142        C143   1.385       .  A
C143        H145   1.082       .  S
Cu146       N149   2.080       .  S
Cu147       N157   2.083       .  S
Cu148       N150   2.080       .  S
Cu148       N156   2.080       .  S
N149        C153   1.348       .  A
N149        N150   1.324       .  A
N150        C151   1.343       .  A
C151        C152   1.382       .  A
C151        H154   1.082       .  S
C152        C153   1.383       .  A
C153        H155   1.082       .  S
N156        C160   1.349       .  A
N156        N157   1.321       .  A
N157        C158   1.346       .  A
C158        C159   1.386       .  A
C158        H161   1.082       .  S
C159        C160   1.386       .  A
C160        H162   1.082       .  S
N163        C167   1.342       .  A
N163        N164   1.324       .  A
N163       Cu171   2.084       .  S
N164        C165   1.351       .  A
N164       Cu794   2.090   1_554  S
C165        C166   1.386       .  A
C165        H168   1.082       .  S
C166        C167   1.384       .  A
C167        H169   1.082       .  S
Cu170       N173   2.089       .  S
Cu170       N788   2.089       .  S
Cu171       N181   2.083       .  S
Cu172       N174   2.074       .  S
Cu172       N180   2.073       .  S
N173        C177   1.349       .  A
N173        N174   1.323       .  A
N174        C175   1.342       .  A
C175        C176   1.382       .  A
C175        H178   1.082       .  S
C176        C177   1.386       .  A
C177        H179   1.081       .  S
N180        C184   1.345       .  A
N180        N805   1.321       .  A
N181        C182   1.348       .  A
N181        N804   1.321   1_554  A
C182        C807   1.387   1_554  A
C182        H185   1.082       .  S
C183        C184   1.384       .  A
C183        C806   1.387       .  A
C183        C221   1.477   1_565  S
C184        H186   1.082       .  S
N187        C191   1.356       .  A
N187        C188   1.355       .  A
N187        C514   1.438       .  S
C188        C189   1.382       .  A
C188        C228   1.472       .  S
C189        C190   1.375       .  A
C189        H192   1.082       .  S
C190        C191   1.382       .  A
C190        H193   1.082       .  S
C191        C214   1.473       .  S
N194        C198   1.354       .  A
N194        C195   1.355       .  A
N194        C498   1.435       .  S
C195        C196   1.382       .  A
C195        C238   1.473       .  S
C196        C197   1.377       .  A
C196        H199   1.082       .  S
C197        C198   1.382       .  A
C197        H200   1.082       .  S
C198        C204   1.474       .  S
N201        C205   1.343       .  A
N201        N202   1.323       .  A
N201       Cu209   2.075       .  S
N202        C203   1.349       .  A
N202       Cu208   2.085       .  S
C203        C204   1.385       .  A
C203        H206   1.081       .  S
C204        C205   1.381       .  A
C205        H207   1.081       .  S
Cu208       N835   2.085       .  S
Cu209       N219   2.075       .  S
Cu210       N212   2.082       .  S
Cu210       N218   2.081       .  S
N211        C215   1.349       .  A
N211        N212   1.323       .  A
N211       Cu832   2.085   1_554  S
N212        C213   1.343       .  A
C213        C214   1.384       .  A
C213        H216   1.082       .  S
C214        C215   1.385       .  A
C215        H217   1.081       .  S
N218        C222   1.347       .  A
N218        N843   1.321   1_554  A
N219        C220   1.346       .  A
N219        N842   1.321       .  A
C220        C221   1.385       .  A
C220        H223   1.082       .  S
C221        C846   1.386       .  A
C222        C845   1.386   1_554  A
C222        H224   1.082       .  S
N225        C229   1.343       .  A
N225        N226   1.324       .  A
N225       Cu233   2.079       .  S
N226        C227   1.349       .  A
N226       Cu232   2.084       .  S
C227        C228   1.384       .  A
C227        H230   1.082       .  S
C228        C229   1.382       .  A
C229        H231   1.082       .  S
Cu232       N235   2.084       .  S
Cu233       N243   2.079       .  S
Cu234       N236   2.081       .  S
Cu234       N242   2.080       .  S
N235        C239   1.349       .  A
N235        N236   1.323       .  A
N236        C237   1.344       .  A
C237        C238   1.383       .  A
C237        H240   1.082       .  S
C238        C239   1.385       .  A
C239        H241   1.081       .  S
N242        C246   1.345       .  A
N242        N243   1.321       .  A
N243        C244   1.348       .  A
C244        C245   1.386       .  A
C244        H247   1.082       .  S
C245        C246   1.385       .  A
C246        H248   1.082       .  S
N249        C253   1.354       .  A
N249        C250   1.356       .  A
N249        C517   1.438       .  S
C250        C251   1.382       .  A
C250        C300   1.472       .  S
C251        C252   1.376       .  A
C251        H254   1.082       .  S
C252        C253   1.383       .  A
C252        H255   1.082       .  S
C253        C266   1.473       .  S
N256        C260   1.355       .  A
N256        C257   1.355       .  A
N256        C501   1.436       .  S
C257        C258   1.382       .  A
C257        C290   1.474       .  S
C258        C259   1.376       .  A
C258        H261   1.082       .  S
C259        C260   1.381       .  A
C259        H262   1.082       .  S
C260        C276   1.472       .  S
N263        C267   1.343       .  A
N263        N264   1.323       .  A
N263       Cu271   2.075       .  S
N264        C265   1.349       .  A
N264       Cu894   2.084       .  S
C265        C266   1.385       .  A
C265        H268   1.082       .  S
C266        C267   1.382       .  A
C267        H269   1.082       .  S
Cu270       N273   2.084       .  S
Cu270       N888   2.083       .  S
Cu271       N281   2.075       .  S
Cu272       N274   2.082       .  S
Cu272       N280   2.082       .  S
N273        C277   1.348       .  A
N273        N274   1.323       .  A
N274        C275   1.344       .  A
C275        C276   1.383       .  A
C275        H278   1.082       .  S
C276        C277   1.385       .  A
C277        H279   1.081       .  S
N280        C284   1.347       .  A
N280        N905   1.321       .  A
N281        C282   1.345       .  A
N281        N904   1.321   1_554  A
C282        C907   1.384   1_554  A
C282        H285   1.082       .  S
C283        C284   1.386       .  A
C283        C906   1.384       .  A
C283        C369   1.477   1_455  S
C284        H286   1.082       .  S
N287        C291   1.343       .  A
N287        N288   1.323       .  A
N287       Cu295   2.081       .  S
N288        C289   1.349       .  A
N288       Cu294   2.081       .  S
C289        C290   1.385       .  A
C289        H292   1.081       .  S
C290        C291   1.383       .  A
C291        H293   1.081       .  S
Cu294       N297   2.081       .  S
Cu295       N305   2.081       .  S
Cu296       N298   2.084       .  S
Cu296       N304   2.083       .  S
N297        C301   1.348       .  A
N297        N298   1.323       .  A
N298        C299   1.344       .  A
C299        C300   1.384       .  A
C299        H302   1.082       .  S
C300        C301   1.383       .  A
C301        H303   1.081       .  S
N304        C308   1.347       .  A
N304        N305   1.321       .  A
N305        C306   1.348       .  A
C306        C307   1.386       .  A
C306        H309   1.082       .  S
C307        C308   1.386       .  A
C307        C407   1.480       .  S
C308        H310   1.082       .  S
N311        C315   1.355       .  A
N311        C312   1.354       .  A
N311        C613   1.437       .  S
C312        C313   1.383       .  A
C312        C328   1.473       .  S
C313        C314   1.376       .  A
C313        H316   1.082       .  S
C314        C315   1.381       .  A
C314        H317   1.082       .  S
C315        C362   1.472       .  S
N318        C322   1.354       .  A
N318        C319   1.355       .  A
N318        C597   1.438       .  S
C319        C320   1.382       .  A
C319        C338   1.472       .  S
C320        C321   1.375       .  A
C320        H323   1.082       .  S
C321        C322   1.382       .  A
C321        H324   1.082       .  S
C322        C352   1.472       .  S
N325        C329   1.343       .  A
N325        N326   1.324       .  A
N325       Cu333   2.079       .  S
N326        C327   1.349       .  A
N326       Cu332   2.084       .  S
C327        C328   1.385       .  A
C327        H330   1.082       .  S
C328        C329   1.382       .  A
C329        H331   1.082       .  S
Cu332       N335   2.083       .  S
Cu333       N343   2.079       .  S
Cu334       N336   2.078       .  S
Cu334       N342   2.078       .  S
N335        C339   1.349       .  A
N335        N336   1.322       .  A
N336        C337   1.343       .  A
C337        C338   1.383       .  A
C337        H340   1.082       .  S
C338        C339   1.386       .  A
C339        H341   1.081       .  S
N342        C346   1.346       .  A
N342        N343   1.321       .  A
N343        C344   1.347       .  A
C344        C345   1.386       .  A
C344        H347   1.082       .  S
C345        C346   1.385       .  A
C345        C469   1.478       .  S
C346        H348   1.082       .  S
N349        C353   1.343       .  A
N349        N350   1.324       .  A
N349       Cu357   2.078       .  S
N350        C351   1.348       .  A
N350       Cu356   2.081       .  S
C351        C352   1.383       .  A
C351        H354   1.082       .  S
C352        C353   1.382       .  A
C353        H355   1.082       .  S
Cu356       N983   2.081       .  S
Cu357       N367   2.078       .  S
Cu358       N360   2.078       .  S
Cu358       N366   2.077       .  S
N359        C363   1.348       .  A
N359        N360   1.322       .  A
N359       Cu980   2.082   1_554  S
N360        C361   1.343       .  A
C361        C362   1.383       .  A
C361        H364   1.082       .  S
C362        C363   1.385       .  A
C363        H365   1.082       .  S
N366        C370   1.345       .  A
N366        N991   1.321   1_554  A
N367        C368   1.347       .  A
N367        N990   1.321       .  A
C368        C369   1.386       .  A
C368        H371   1.082       .  S
C369        C994   1.385       .  A
C370        C993   1.385   1_554  A
C370        H372   1.082       .  S
N373        C377   1.357       .  A
N373        C374   1.357       .  A
N373        C533   1.439       .  S
C374        C375   1.381       .  A
C374        C424   1.476       .  S
C375        C376   1.374       .  A
C375        H378   1.082       .  S
C376        C377   1.382       .  A
C376        H379   1.083       .  S
C377        C390   1.476       .  S
N380        C384   1.356       .  A
N380        C381   1.355       .  A
N380        C549   1.437       .  S
C381        C382   1.381       .  A
C381        C414   1.472       .  S
C382        C383   1.375       .  A
C382        H385   1.082       .  S
C383        C384   1.383       .  A
C383        H386   1.082       .  S
C384        C400   1.475       .  S
N387        C391   1.343       .  A
N387        N388   1.323       .  A
N387       Cu395   2.080       .  S
N388        C389   1.350       .  A
N388       Cu394   2.089       .  S
C389        C390   1.386       .  A
C389        H392   1.082       .  S
C390        C391   1.383       .  A
C391        H393   1.082       .  S
Cu394       N397   2.089       .  S
Cu395       N405   2.079       .  S
Cu396       N398   2.083       .  S
Cu396       N404   2.082       .  S
N397        C401   1.351       .  A
N397        N398   1.324       .  A
N398        C399   1.342       .  A
C399        C400   1.382       .  A
C399        H402   1.082       .  S
C400        C401   1.386       .  A
C401        H403   1.080       .  S
N404        C408   1.348       .  A
N404        N405   1.321       .  A
N405        C406   1.346       .  A
C406        C407   1.386       .  A
C406        H409   1.082       .  S
C407        C408   1.387       .  A
C408        H410   1.082       .  S
N411        C415   1.343       .  A
N411        N412   1.323       .  A
N411       Cu419   2.078       .  S
N412        C413   1.348       .  A
N412       Cu418   2.080       .  S
C413        C414   1.384       .  A
C413        H416   1.082       .  S
C414        C415   1.382       .  A
C415        H417   1.082       .  S
Cu418      N1045   2.080       .  S
Cu419       N429   2.078       .  S
Cu420       N422   2.086       .  S
Cu420       N428   2.085       .  S
N421        C425   1.348       .  A
N421        N422   1.323       .  A
N421      Cu1042   2.080   1_554  S
N422        C423   1.344       .  A
C423        C424   1.385       .  A
C423        H426   1.082       .  S
C424        C425   1.384       .  A
C425        H427   1.081       .  S
N428        C432   1.348       .  A
N428       N1053   1.322   1_554  A
N429        C430   1.346       .  A
N429       N1052   1.322       .  A
C430        C431   1.385       .  A
C430        H433   1.082       .  S
C431       C1056   1.387       .  A
C431        C493   1.479   1_455  S
C432       C1055   1.387       .  A
C432        H434   1.082       .  S
N435        C439   1.357       .  A
N435        C436   1.356       .  A
N435        C578   1.438       .  S
C436        C437   1.382       .  A
C436        C486   1.477       .  S
C437        C438   1.375       .  A
C437        H440   1.082       .  S
C438        C439   1.382       .  A
C438        H441   1.082       .  S
C439        C452   1.476       .  S
N442        C446   1.356       .  A
N442        C443   1.356       .  A
N442        C565   1.439       .  S
C443        C444   1.382       .  A
C443        C476   1.476       .  S
C444        C445   1.374       .  A
C444        H447   1.082       .  S
C445        C446   1.382       .  A
C445        H448   1.082       .  S
C446        C462   1.474       .  S
N449        C453   1.343       .  A
N449        N450   1.323       .  A
N449       Cu457   2.081       .  S
N450        C451   1.351       .  A
N450       Cu456   2.089       .  S
C451        C452   1.386       .  A
C451        H454   1.082       .  S
C452        C453   1.383       .  A
C453        H455   1.082       .  S
Cu456       N459   2.089       .  S
Cu457       N467   2.080       .  S
Cu458       N460   2.079       .  S
Cu458       N466   2.078       .  S
N459        C463   1.349       .  A
N459        N460   1.323       .  A
N460        C461   1.343       .  A
C461        C462   1.383       .  A
C461        H464   1.082       .  S
C462        C463   1.386       .  A
C463        H465   1.081       .  S
N466        C470   1.347       .  A
N466        N467   1.321       .  A
N467        C468   1.347       .  A
C468        C469   1.386       .  A
C468        H471   1.082       .  S
C469        C470   1.385       .  A
C470        H472   1.082       .  S
N473        C477   1.343       .  A
N473        N474   1.323       .  A
N473       Cu481   2.083       .  S
N474        C475   1.348       .  A
N474      Cu1104   2.082   1_554  S
C475        C476   1.385       .  A
C475        H478   1.079       .  S
C476        C477   1.384       .  A
C477        H479   1.082       .  S
Cu480       N483   2.083       .  S
Cu480      N1098   2.082       .  S
Cu481       N491   2.082       .  S
Cu482       N484   2.080       .  S
Cu482       N490   2.079       .  S
N483        C487   1.349       .  A
N483        N484   1.323       .  A
N484        C485   1.343       .  A
C485        C486   1.384       .  A
C485        H488   1.082       .  S
C486        C487   1.386       .  A
C487        H489   1.081       .  S
N490        C494   1.346       .  A
N490       N1115   1.321       .  A
N491        C492   1.348       .  A
N491       N1114   1.321   1_554  A
C492       C1117   1.387       .  A
C492        H495   1.082       .  S
C493        C494   1.386       .  A
C493       C1116   1.387       .  A
C494        H496   1.082       .  S
C497        C498   1.401       .  A
C497        C502   1.404       .  A
C497        H504   1.084       .  S
C498        C499   1.415       .  A
C499        C500   1.404       .  A
C499        C506   1.516       .  S
C500        C501   1.401       .  A
C500        H505   1.084       .  S
C501        C502   1.416       .  A
C502        C503   1.515       .  S
C503        F507   1.384       .  S
C503        F508   1.381       .  S
C503        F509   1.383       .  S
C506        F510   1.383       .  S
C506        F511   1.381       .  S
C506        F512   1.384       .  S
C513        C514   1.402       .  A
C513        C518   1.406       .  A
C513        H520   1.084       .  S
C514        C515   1.416       .  A
C515        C516   1.405       .  A
C515        C522   1.517       .  S
C516        C517   1.402       .  A
C516        H521   1.084       .  S
C517        C518   1.416       .  A
C518        C519   1.517       .  S
C519        F523   1.384       .  S
C519        F524   1.383       .  S
C519        F525   1.381       .  S
C522        F526   1.382       .  S
C522        F527   1.382       .  S
C522        F528   1.384       .  S
C529        C530   1.401       .  A
C529        C534   1.408       .  A
C529        H536   1.082       .  S
C530        C531   1.415       .  A
C531        C532   1.407       .  A
C531        C538   1.516       .  S
C532        C533   1.401       .  A
C532        H537   1.082       .  S
C533        C534   1.415       .  A
C534        C535   1.517       .  S
C535        F539   1.385       .  S
C535        F540   1.382       .  S
C535        F541   1.380       .  S
C538        F542   1.380       .  S
C538        F543   1.382       .  S
C538        F544   1.385       .  S
C545        C546   1.401       .  A
C545        C550   1.405       .  A
C545        H552   1.084       .  S
C546        C547   1.415       .  A
C547        C548   1.405       .  A
C547        C554   1.516       .  S
C548        C549   1.401       .  A
C548        H553   1.084       .  S
C549        C550   1.416       .  A
C550        C551   1.517       .  S
C551        F555   1.383       .  S
C551        F556   1.381       .  S
C551        F557   1.384       .  S
C554        F558   1.384       .  S
C554        F559   1.382       .  S
C554        F560   1.383       .  S
C561        C562   1.401       .  A
C561        C566   1.407       .  A
C561        H568   1.082       .  S
C562        C563   1.415       .  A
C563        C564   1.408       .  A
C563        C570   1.517       .  S
C564        C565   1.401       .  A
C564        H569   1.082       .  S
C565        C566   1.415       .  A
C566        C567   1.518       .  S
C567        F571   1.384       .  S
C567        F572   1.380       .  S
C567        F573   1.382       .  S
C570        F574   1.382       .  S
C570        F575   1.380       .  S
C570        F576   1.384       .  S
C577        C578   1.400       .  A
C577        C582   1.407       .  A
C577        H584   1.082       .  S
C578        C579   1.414       .  A
C579        C580   1.407       .  A
C579        C586   1.517       .  S
C580        C581   1.400       .  A
C580        H585   1.082       .  S
C581        C582   1.415       .  A
C582        C583   1.517       .  S
C583        F587   1.385       .  S
C583        F588   1.380       .  S
C583        F589   1.382       .  S
C586        F590   1.382       .  S
C586        F591   1.381       .  S
C586        F592   1.385       .  S
C593        C594   1.402       .  A
C593        C598   1.406       .  A
C593        H600   1.084       .  S
C594        C595   1.416       .  A
C595        C596   1.406       .  A
C595        C602   1.516       .  S
C596        C597   1.401       .  A
C596        H601   1.084       .  S
C597        C598   1.416       .  A
C598        C599   1.517       .  S
C599        F603   1.384       .  S
C599        F604   1.383       .  S
C599        F605   1.381       .  S
C602        F606   1.381       .  S
C602        F607   1.383       .  S
C602        F608   1.384       .  S
C609        C610   1.401       .  A
C609        C614   1.404       .  A
C609        H616   1.084       .  S
C610        C611   1.415       .  A
C611        C612   1.405       .  A
C611        C618   1.516       .  S
C612        C613   1.401       .  A
C612        H617   1.084       .  S
C613        C614   1.415       .  A
C614        C615   1.517       .  S
C615        F619   1.384       .  S
C615        F620   1.382       .  S
C615        F621   1.383       .  S
C618        F622   1.383       .  S
C618        F623   1.381       .  S
C618        F624   1.384       .  S
N625        C629   1.354       .  A
N625        C626   1.354       .  A
N625       C1234   1.437       .  S
C626        C627   1.381       .  A
C626        C652   1.471       .  S
C627        C628   1.377       .  A
C627        H630   1.082       .  S
C628        C629   1.383       .  A
C628        H631   1.082       .  S
C629        C666   1.474       .  S
N632        C636   1.356       .  A
N632        C633   1.354       .  A
N632       C1218   1.438       .  S
C633        C634   1.382       .  A
C633        C642   1.473       .  S
C634        C635   1.376       .  A
C634        H637   1.082       .  S
C635        C636   1.382       .  A
C635        H638   1.082       .  S
C636        C676   1.472       .  S
N639        C643   1.343       .  A
N639        N640   1.322       .  A
N639       Cu647   2.074       .  S
N640        C641   1.348       .  A
N640       Cu646   2.079       .  S
C641        C642   1.384       .  A
C641        H644   1.082       .  S
C642        C643   1.382       .  A
C643        H645   1.082       .  S
Cu646       N649   2.081       .  S
Cu647       N657   2.073       .  S
Cu648       N650   2.086       .  S
Cu648       N656   2.085       .  S
N649        C653   1.348       .  A
N649        N650   1.324       .  A
N650        C651   1.344       .  A
C651        C652   1.382       .  A
C651        H654   1.082       .  S
C652        C653   1.384       .  A
C653        H655   1.082       .  S
N656        C660   1.349       .  A
N656        N657   1.321       .  A
N657        C658   1.344       .  A
C658        C659   1.384       .  A
C658        H661   1.082       .  S
C659        C660   1.388       .  A
C659        C869   1.478       .  S
C660        H662   1.082       .  S
N663        C667   1.343       .  A
N663        N664   1.323       .  A
N663       Cu671   2.078       .  S
N664        C665   1.349       .  A
C665        C666   1.385       .  A
C665        H668   1.082       .  S
C666        C667   1.382       .  A
C667        H669   1.082       .  S
Cu670       N673   2.082   1_554  S
Cu671       N681   2.077       .  S
Cu672       N674   2.087       .  S
Cu672       N680   2.086       .  S
N673        C677   1.349       .  A
N673        N674   1.323       .  A
N674        C675   1.343       .  A
C675        C676   1.384       .  A
C675        H678   1.082       .  S
C676        C677   1.384       .  A
C677        H679   1.081       .  S
N680        C684   1.348       .  A
N681        C682   1.347       .  A
C682        H685   1.082       .  S
C683        C684   1.387       .  A
C683        C745   1.480   1_545  S
C684        H686   1.082       .  S
N687        C691   1.358       .  A
N687        C688   1.358       .  A
N687       C1205   1.439       .  S
C688        C689   1.382       .  A
C688        C728   1.476       .  S
C689        C690   1.373       .  A
C689        H692   1.083       .  S
C690        C691   1.382       .  A
C690        H693   1.082       .  S
C691        C714   1.477       .  S
N694        C698   1.357       .  A
N694        C695   1.356       .  A
N694       C1186   1.439       .  S
C695        C696   1.381       .  A
C695        C738   1.474       .  S
C696        C697   1.375       .  A
C696        H699   1.082       .  S
C697        C698   1.383       .  A
C697        H700   1.082       .  S
C698        C704   1.477       .  S
N701        C705   1.343       .  A
N701        N702   1.322       .  A
N701       Cu709   2.078       .  S
N702        C703   1.348       .  A
N702       Cu708   2.081       .  S
C703        C704   1.386       .  A
C703        H706   1.079       .  S
C704        C705   1.384       .  A
C705        H707   1.082       .  S
Cu708       N711   2.082       .  S
Cu709       N719   2.077       .  S
Cu710       N712   2.088       .  S
Cu710       N718   2.087       .  S
N711        C715   1.349       .  A
N711        N712   1.323       .  A
N712        C713   1.343       .  A
C713        C714   1.385       .  A
C713        H716   1.082       .  S
C714        C715   1.385       .  A
C715        H717   1.081       .  S
N718        C722   1.349       .  A
N718        N719   1.321       .  A
N719        C720   1.345       .  A
C720        C721   1.384       .  A
C720        H723   1.082       .  S
C721        C722   1.388       .  A
C721        C783   1.479       .  S
C722        H724   1.082       .  S
N725        C729   1.343       .  A
N725        N726   1.323       .  A
N725       Cu733   2.084       .  S
N726        C727   1.350       .  A
N726       Cu732   2.089       .  S
C727        C728   1.387       .  A
C727        H730   1.082       .  S
C728        C729   1.384       .  A
C729        H731   1.082       .  S
Cu733       N743   2.084       .  S
Cu734       N736   2.080       .  S
Cu734       N742   2.080       .  S
N735        C739   1.349       .  A
N735        N736   1.323       .  A
N736        C737   1.343       .  A
C737        C738   1.383       .  A
C737        H740   1.082       .  S
C738        C739   1.385       .  A
C739        H741   1.081       .  S
N742        C746   1.347       .  A
N743        C744   1.348       .  A
C744        C745   1.387       .  A
C744        H747   1.082       .  S
C746        H748   1.082       .  S
N749        C753   1.355       .  A
N749        C750   1.354       .  A
N749       C1170   1.437       .  S
C750        C751   1.381       .  A
C750        C776   1.471       .  S
C751        C752   1.376       .  A
C751        H754   1.082       .  S
C752        C753   1.384       .  A
C752        H755   1.082       .  S
C753        C800   1.474       .  S
N756        C760   1.359       .  A
N756        C757   1.358       .  A
N756       C1154   1.440       .  S
C757        C758   1.381       .  A
C757        C766   1.477       .  S
C758        C759   1.373       .  A
C758        H761   1.082       .  S
C759        C760   1.382       .  A
C759        H762   1.083       .  S
C760        C790   1.476       .  S
N763        C767   1.344       .  A
N763        N764   1.322       .  A
N763       Cu771   2.084       .  S
N764        C765   1.348       .  A
N764       Cu770   2.080       .  S
C765        C766   1.385       .  A
C765        H768   1.081       .  S
C766        C767   1.385       .  A
C767        H769   1.082       .  S
Cu770       N773   2.080       .  S
Cu771       N781   2.083       .  S
Cu772       N774   2.080       .  S
Cu772       N780   2.080       .  S
N773        C777   1.348       .  A
N773        N774   1.324       .  A
N774        C775   1.343       .  A
C775        C776   1.382       .  A
C775        H778   1.082       .  S
C776        C777   1.383       .  A
C777        H779   1.082       .  S
N780        C784   1.349       .  A
N780        N781   1.321       .  A
N781        C782   1.346       .  A
C782        C783   1.386       .  A
C782        H785   1.082       .  S
C783        C784   1.386       .  A
C784        H786   1.082       .  S
N787        C791   1.342       .  A
N787        N788   1.324       .  A
N787       Cu795   2.083       .  S
N788        C789   1.351       .  A
C789        C790   1.386       .  A
C789        H792   1.082       .  S
C790        C791   1.383       .  A
C791        H793   1.082       .  S
Cu794       N797   2.089       .  S
Cu795       N805   2.082       .  S
Cu796       N798   2.074       .  S
Cu796       N804   2.073       .  S
N797        C801   1.349       .  A
N797        N798   1.323       .  A
N798        C799   1.342       .  A
C799        C800   1.382       .  A
C799        H802   1.082       .  S
C800        C801   1.386       .  A
C801        H803   1.081       .  S
N804        C808   1.346       .  A
N805        C806   1.348       .  A
C806        H809   1.082       .  S
C807        C808   1.384       .  A
C807        C845   1.477   1_565  S
C808        H810   1.082       .  S
N811        C815   1.356       .  A
N811        C812   1.354       .  A
N811       C1138   1.438       .  S
C812        C813   1.382       .  A
C812        C852   1.472       .  S
C813        C814   1.375       .  A
C813        H816   1.082       .  S
C814        C815   1.382       .  A
C814        H817   1.082       .  S
C815        C838   1.473       .  S
N818        C822   1.354       .  A
N818        C819   1.355       .  A
N818       C1122   1.435       .  S
C819        C820   1.382       .  A
C819        C862   1.474       .  S
C820        C821   1.377       .  A
C820        H823   1.082       .  S
C821        C822   1.382       .  A
C821        H824   1.082       .  S
C822        C828   1.474       .  S
N825        C829   1.343       .  A
N825        N826   1.323       .  A
N825       Cu833   2.075       .  S
N826        C827   1.349       .  A
N826       Cu832   2.085       .  S
C827        C828   1.385       .  A
C827        H830   1.081       .  S
C828        C829   1.381       .  A
C829        H831   1.081       .  S
Cu833       N843   2.075       .  S
Cu834       N836   2.082       .  S
Cu834       N842   2.081       .  S
N835        C839   1.349       .  A
N835        N836   1.323       .  A
N836        C837   1.343       .  A
C837        C838   1.384       .  A
C837        H840   1.082       .  S
C838        C839   1.385       .  A
C839        H841   1.081       .  S
N842        C846   1.347       .  A
N843        C844   1.346       .  A
C844        C845   1.385       .  A
C844        H847   1.082       .  S
C846        H848   1.082       .  S
N849        C853   1.343       .  A
N849        N850   1.324       .  A
N849       Cu857   2.078       .  S
N850        C851   1.349       .  A
N850       Cu856   2.084       .  S
C851        C852   1.384       .  A
C851        H854   1.082       .  S
C852        C853   1.382       .  A
C853        H855   1.082       .  S
Cu856       N859   2.084       .  S
Cu857       N867   2.078       .  S
Cu858       N860   2.081       .  S
Cu858       N866   2.081       .  S
N859        C863   1.349       .  A
N859        N860   1.323       .  A
N860        C861   1.344       .  A
C861        C862   1.383       .  A
C861        H864   1.082       .  S
C862        C863   1.385       .  A
C863        H865   1.081       .  S
N866        C870   1.345       .  A
N866        N867   1.321       .  A
N867        C868   1.348       .  A
C868        C869   1.386       .  A
C868        H871   1.082       .  S
C869        C870   1.386       .  A
C870        H872   1.082       .  S
N873        C877   1.354       .  A
N873        C874   1.356       .  A
N873       C1141   1.438       .  S
C874        C875   1.382       .  A
C874        C924   1.472       .  S
C875        C876   1.376       .  A
C875        H878   1.082       .  S
C876        C877   1.383       .  A
C876        H879   1.082       .  S
C877        C890   1.473       .  S
N880        C884   1.355       .  A
N880        C881   1.355       .  A
N880       C1125   1.436       .  S
C881        C882   1.382       .  A
C881        C914   1.474       .  S
C882        C883   1.376       .  A
C882        H885   1.082       .  S
C883        C884   1.381       .  A
C883        H886   1.082       .  S
C884        C900   1.472       .  S
N887        C891   1.343       .  A
N887        N888   1.323       .  A
N887       Cu895   2.075       .  S
N888        C889   1.349       .  A
C889        C890   1.385       .  A
C889        H892   1.082       .  S
C890        C891   1.382       .  A
C891        H893   1.082       .  S
Cu894       N897   2.084   1_554  S
Cu895       N905   2.075       .  S
Cu896       N898   2.083       .  S
Cu896       N904   2.083       .  S
N897        C901   1.349       .  A
N897        N898   1.323       .  A
N898        C899   1.344       .  A
C899        C900   1.384       .  A
C899        H902   1.082       .  S
C900        C901   1.385       .  A
C901        H903   1.081       .  S
N904        C908   1.348       .  A
N905        C906   1.346       .  A
C906        H909   1.082       .  S
C907        C908   1.386       .  A
C907        C993   1.477   1_455  S
C908        H910   1.082       .  S
N911        C915   1.343       .  A
N911        N912   1.323       .  A
N911       Cu919   2.081       .  S
N912        C913   1.349       .  A
N912       Cu918   2.081       .  S
C913        C914   1.385       .  A
C913        H916   1.081       .  S
C914        C915   1.383       .  A
C915        H917   1.081       .  S
Cu918       N921   2.081       .  S
Cu919       N929   2.081       .  S
Cu920       N922   2.085       .  S
Cu920       N928   2.084       .  S
N921        C925   1.348       .  A
N921        N922   1.323       .  A
N922        C923   1.344       .  A
C923        C924   1.384       .  A
C923        H926   1.082       .  S
C924        C925   1.384       .  A
C925        H927   1.081       .  S
N928        C932   1.347       .  A
N928        N929   1.321       .  A
N929        C930   1.348       .  A
C930        C931   1.386       .  A
C930        H933   1.082       .  S
C931        C932   1.386       .  A
C931       C1031   1.480       .  S
C932        H934   1.082       .  S
N935        C939   1.355       .  A
N935        C936   1.354       .  A
N935       C1237   1.437       .  S
C936        C937   1.383       .  A
C936        C952   1.473       .  S
C937        C938   1.376       .  A
C937        H940   1.082       .  S
C938        C939   1.381       .  A
C938        H941   1.082       .  S
C939        C986   1.472       .  S
N942        C946   1.354       .  A
N942        C943   1.355       .  A
N942       C1221   1.437       .  S
C943        C944   1.382       .  A
C943        C962   1.471       .  S
C944        C945   1.375       .  A
C944        H947   1.082       .  S
C945        C946   1.382       .  A
C945        H948   1.082       .  S
C946        C976   1.471       .  S
N949        C953   1.343       .  A
N949        N950   1.324       .  A
N949       Cu957   2.079       .  S
N950        C951   1.349       .  A
N950       Cu956   2.083       .  S
C951        C952   1.384       .  A
C951        H954   1.082       .  S
C952        C953   1.382       .  A
C953        H955   1.082       .  S
Cu956       N959   2.083       .  S
Cu957       N967   2.079       .  S
Cu958       N960   2.077       .  S
Cu958       N966   2.077       .  S
N959        C963   1.348       .  A
N959        N960   1.322       .  A
N960        C961   1.343       .  A
C961        C962   1.383       .  A
C961        H964   1.082       .  S
C962        C963   1.385       .  A
C963        H965   1.081       .  S
N966        C970   1.346       .  A
N966        N967   1.321       .  A
N967        C968   1.347       .  A
C968        C969   1.386       .  A
C968        H971   1.082       .  S
C969        C970   1.385       .  A
C969       C1093   1.478       .  S
C970        H972   1.082       .  S
N973        C977   1.343       .  A
N973        N974   1.324       .  A
N973       Cu981   2.078       .  S
N974        C975   1.348       .  A
N974       Cu980   2.081       .  S
C975        C976   1.383       .  A
C975        H978   1.082       .  S
C976        C977   1.382       .  A
C977        H979   1.082       .  S
Cu981       N991   2.077       .  S
Cu982       N984   2.077       .  S
Cu982       N990   2.077       .  S
N983        C987   1.348       .  A
N983        N984   1.322       .  A
N984        C985   1.343       .  A
C985        C986   1.382       .  A
C985        H988   1.082       .  S
C986        C987   1.385       .  A
C987        H989   1.082       .  S
N990        C994   1.345       .  A
N991        C992   1.347       .  A
C992        C993   1.386       .  A
C992        H995   1.082       .  S
C994        H996   1.082       .  S
N997       C1001   1.357       .  A
N997        C998   1.357       .  A
N997       C1157   1.439       .  S
C998        C999   1.381       .  A
C998       C1048   1.476       .  S
C999       C1000   1.375       .  A
C999       H1002   1.082       .  S
C1000      C1001   1.382       .  A
C1000      H1003   1.083       .  S
C1001      C1014   1.475       .  S
N1004      C1008   1.356       .  A
N1004      C1005   1.355       .  A
N1004      C1173   1.437       .  S
C1005      C1006   1.381       .  A
C1005      C1038   1.472       .  S
C1006      C1007   1.375       .  A
C1006      H1009   1.082       .  S
C1007      C1008   1.383       .  A
C1007      H1010   1.082       .  S
C1008      C1024   1.476       .  S
N1011      C1015   1.343       .  A
N1011      N1012   1.323       .  A
N1011     Cu1019   2.080       .  S
N1012      C1013   1.350       .  A
N1012     Cu1018   2.089       .  S
C1013      C1014   1.386       .  A
C1013      H1016   1.082       .  S
C1014      C1015   1.383       .  A
C1015      H1017   1.082       .  S
Cu1018     N1021   2.089       .  S
Cu1019     N1029   2.079       .  S
Cu1020     N1022   2.084       .  S
Cu1020     N1028   2.083       .  S
N1021      C1025   1.351       .  A
N1021      N1022   1.324       .  A
N1022      C1023   1.342       .  A
C1023      C1024   1.383       .  A
C1023      H1026   1.082       .  S
C1024      C1025   1.386       .  A
C1025      H1027   1.080       .  S
N1028      C1032   1.349       .  A
N1028      N1029   1.321       .  A
N1029      C1030   1.346       .  A
C1030      C1031   1.385       .  A
C1030      H1033   1.082       .  S
C1031      C1032   1.387       .  A
C1032      H1034   1.082       .  S
N1035      C1039   1.343       .  A
N1035      N1036   1.323       .  A
N1035     Cu1043   2.078       .  S
N1036      C1037   1.348       .  A
N1036     Cu1042   2.080       .  S
C1037      C1038   1.384       .  A
C1037      H1040   1.082       .  S
C1038      C1039   1.382       .  A
C1039      H1041   1.082       .  S
Cu1043     N1053   2.078       .  S
Cu1044     N1046   2.086       .  S
Cu1044     N1052   2.086       .  S
N1045      C1049   1.348       .  A
N1045      N1046   1.323       .  A
N1046      C1047   1.344       .  A
C1047      C1048   1.385       .  A
C1047      H1050   1.082       .  S
C1048      C1049   1.384       .  A
C1049      H1051   1.081       .  S
N1052      C1056   1.348       .  A
N1053      C1054   1.346       .  A
C1054      C1055   1.385   1_556  A
C1054      H1057   1.082       .  S
C1055      C1117   1.479   1_455  S
C1056      H1058   1.082       .  S
N1059      C1063   1.357       .  A
N1059      C1060   1.356       .  A
N1059      C1202   1.438       .  S
C1060      C1061   1.382       .  A
C1060      C1110   1.477       .  S
C1061      C1062   1.375       .  A
C1061      H1064   1.082       .  S
C1062      C1063   1.382       .  A
C1062      H1065   1.082       .  S
C1063      C1076   1.476       .  S
N1066      C1070   1.356       .  A
N1066      C1067   1.356       .  A
N1066      C1189   1.438       .  S
C1067      C1068   1.382       .  A
C1067      C1100   1.476       .  S
C1068      C1069   1.374       .  A
C1068      H1071   1.082       .  S
C1069      C1070   1.382       .  A
C1069      H1072   1.082       .  S
C1070      C1086   1.474       .  S
N1073      C1077   1.343       .  A
N1073      N1074   1.323       .  A
N1073     Cu1081   2.081       .  S
N1074      C1075   1.351       .  A
N1074     Cu1080   2.089       .  S
C1075      C1076   1.386       .  A
C1075      H1078   1.082       .  S
C1076      C1077   1.383       .  A
C1077      H1079   1.082       .  S
Cu1080     N1083   2.089       .  S
Cu1081     N1091   2.081       .  S
Cu1082     N1084   2.078       .  S
Cu1082     N1090   2.078       .  S
N1083      C1087   1.350       .  A
N1083      N1084   1.323       .  A
N1084      C1085   1.343       .  A
C1085      C1086   1.383       .  A
C1085      H1088   1.082       .  S
C1086      C1087   1.386       .  A
C1087      H1089   1.081       .  S
N1090      C1094   1.347       .  A
N1090      N1091   1.321       .  A
N1091      C1092   1.347       .  A
C1092      C1093   1.386       .  A
C1092      H1095   1.082       .  S
C1093      C1094   1.385       .  A
C1094      H1096   1.082       .  S
N1097      C1101   1.343       .  A
N1097      N1098   1.323       .  A
N1097     Cu1105   2.083       .  S
N1098      C1099   1.348       .  A
C1099      C1100   1.385       .  A
C1099      H1102   1.079       .  S
C1100      C1101   1.384       .  A
C1101      H1103   1.082       .  S
Cu1104     N1107   2.083       .  S
Cu1105     N1115   2.082       .  S
Cu1106     N1108   2.079       .  S
Cu1106     N1114   2.079       .  S
N1107      C1111   1.349       .  A
N1107      N1108   1.323       .  A
N1108      C1109   1.342       .  A
C1109      C1110   1.383       .  A
C1109      H1112   1.082       .  S
C1110      C1111   1.386       .  A
C1111      H1113   1.081       .  S
N1114      C1118   1.346       .  A
N1115      C1116   1.348       .  A
C1116      H1119   1.082       .  S
C1117      C1118   1.386   1_554  A
C1118      H1120   1.082       .  S
C1121      C1122   1.401       .  A
C1121      C1126   1.405       .  A
C1121      H1128   1.084       .  S
C1122      C1123   1.415       .  A
C1123      C1124   1.404       .  A
C1123      C1130   1.516       .  S
C1124      C1125   1.401       .  A
C1124      H1129   1.084       .  S
C1125      C1126   1.416       .  A
C1126      C1127   1.516       .  S
C1127      F1131   1.384       .  S
C1127      F1132   1.381       .  S
C1127      F1133   1.383       .  S
C1130      F1134   1.383       .  S
C1130      F1135   1.381       .  S
C1130      F1136   1.384       .  S
C1137      C1138   1.402       .  A
C1137      C1142   1.406       .  A
C1137      H1144   1.084       .  S
C1138      C1139   1.416       .  A
C1139      C1140   1.405       .  A
C1139      C1146   1.517       .  S
C1140      C1141   1.402       .  A
C1140      H1145   1.084       .  S
C1141      C1142   1.416       .  A
C1142      C1143   1.517       .  S
C1143      F1147   1.384       .  S
C1143      F1148   1.383       .  S
C1143      F1149   1.381       .  S
C1146      F1150   1.382       .  S
C1146      F1151   1.382       .  S
C1146      F1152   1.384       .  S
C1153      C1154   1.401       .  A
C1153      C1158   1.408       .  A
C1153      H1160   1.082       .  S
C1154      C1155   1.415       .  A
C1155      C1156   1.407       .  A
C1155      C1162   1.516       .  S
C1156      C1157   1.401       .  A
C1156      H1161   1.082       .  S
C1157      C1158   1.415       .  A
C1158      C1159   1.517       .  S
C1159      F1163   1.385       .  S
C1159      F1164   1.382       .  S
C1159      F1165   1.380       .  S
C1162      F1166   1.380       .  S
C1162      F1167   1.382       .  S
C1162      F1168   1.385       .  S
C1169      C1170   1.401       .  A
C1169      C1174   1.405       .  A
C1169      H1176   1.084       .  S
C1170      C1171   1.415       .  A
C1171      C1172   1.405       .  A
C1171      C1178   1.516       .  S
C1172      C1173   1.401       .  A
C1172      H1177   1.084       .  S
C1173      C1174   1.417       .  A
C1174      C1175   1.517       .  S
C1175      F1179   1.383       .  S
C1175      F1180   1.381       .  S
C1175      F1181   1.384       .  S
C1178      F1182   1.384       .  S
C1178      F1183   1.382       .  S
C1178      F1184   1.383       .  S
C1185      C1186   1.401       .  A
C1185      C1190   1.408       .  A
C1185      H1192   1.082       .  S
C1186      C1187   1.415       .  A
C1187      C1188   1.408       .  A
C1187      C1194   1.517       .  S
C1188      C1189   1.401       .  A
C1188      H1193   1.082       .  S
C1189      C1190   1.415       .  A
C1190      C1191   1.518       .  S
C1191      F1195   1.384       .  S
C1191      F1196   1.380       .  S
C1191      F1197   1.382       .  S
C1194      F1198   1.382       .  S
C1194      F1199   1.380       .  S
C1194      F1200   1.384       .  S
C1201      C1202   1.400       .  A
C1201      C1206   1.407       .  A
C1201      H1208   1.082       .  S
C1202      C1203   1.414       .  A
C1203      C1204   1.407       .  A
C1203      C1210   1.517       .  S
C1204      C1205   1.400       .  A
C1204      H1209   1.082       .  S
C1205      C1206   1.415       .  A
C1206      C1207   1.516       .  S
C1207      F1211   1.385       .  S
C1207      F1212   1.381       .  S
C1207      F1213   1.382       .  S
C1210      F1214   1.382       .  S
C1210      F1215   1.381       .  S
C1210      F1216   1.385       .  S
C1217      C1218   1.402       .  A
C1217      C1222   1.406       .  A
C1217      H1224   1.084       .  S
C1218      C1219   1.416       .  A
C1219      C1220   1.405       .  A
C1219      C1226   1.516       .  S
C1220      C1221   1.401       .  A
C1220      H1225   1.084       .  S
C1221      C1222   1.416       .  A
C1222      C1223   1.517       .  S
C1223      F1227   1.384       .  S
C1223      F1228   1.383       .  S
C1223      F1229   1.381       .  S
C1226      F1230   1.381       .  S
C1226      F1231   1.383       .  S
C1226      F1232   1.384       .  S
C1233      C1234   1.401       .  A
C1233      C1238   1.404       .  A
C1233      H1240   1.084       .  S
C1234      C1235   1.416       .  A
C1235      C1236   1.405       .  A
C1235      C1242   1.516       .  S
C1236      C1237   1.401       .  A
C1236      H1241   1.084       .  S
C1237      C1238   1.415       .  A
C1238      C1239   1.517       .  S
C1239      F1243   1.384       .  S
C1239      F1244   1.382       .  S
C1239      F1245   1.383       .  S
C1242      F1246   1.383       .  S
C1242      F1247   1.381       .  S
C1242      F1248   1.384       .  S
