geometry optimzed in LAMMPS
_audit_creation_date              2020-12-01 
_audit_creation_method            'lammps2cif' 
_symmetry_space_group_name_H-M    'P1' 
_symmetry_Int_Tables_number       1 
_symmetry_cell_setting            triclinic 
loop_ 
_symmetry_equiv_pos_as_xyz 
  x,y,z 
_cell_length_a                    28.12074118 
_cell_length_b                    29.2045432687931 
_cell_length_c                    28.226641115552425 
_cell_angle_alpha                 90.12676319284662 
_cell_angle_beta                  89.87769208997489 
_cell_angle_gamma                 90.06865926723852 
loop_ 
_atom_site_label 
_atom_site_type_symbol 
_atom_site_fract_x 
_atom_site_fract_y 
_atom_site_fract_z 
_atom_site_charge 
C1          C  0.25694401  0.20833470  0.86014720     0.80100
N2          N  0.26334193  0.20955476  0.81238402    -0.78200
C3          C  0.23957575  0.24020352  0.78517669     0.82500
N4          N  0.20907839  0.26994041  0.80645856    -0.78200
C5          C  0.20266243  0.26941431  0.85425928     0.82600
N6          N  0.22662209  0.23845553  0.88115384    -0.79900
Zn7        Zn  0.41950139  0.99310281  0.99205154     1.49700
Zn8        Zn  0.02810403  0.47441412  0.98397212     1.49400
Zn9        Zn  0.51954837  0.45379406  0.91191420     1.49100
Zn10       Zn  0.47801350  0.03865407  0.90871200     1.49500
O11         O  0.52795623  0.50969345  0.94828896    -1.84300
O12         O  0.44481247  0.99603175  0.05950152    -0.74900
O13         O  0.06552123  0.42061736  0.95691363    -0.74700
O14         O  0.46227523  0.41829286  0.93456332    -0.74200
O15         O  0.05698052  0.00210870  0.06227592    -0.74900
O16         O  0.42689029  0.46824953  0.98189483    -0.74500
O17         O  0.01510336  0.39274068  0.90401726    -0.75100
O18         O  0.48752064  0.02145630  0.83979838    -0.74500
O19         O  0.12428016  0.05654356  0.98967644    -0.75200
O20         O  0.51540695  0.46757006  0.84203689    -0.74600
O21         O  0.10030135  0.09655650  0.92723428    -0.75100
O22         O  0.41767845  0.07461339  0.91133744    -0.75000
O23         O  0.37845051  0.04810694  0.97418996    -0.74800
C24         C  0.48267470  0.97974586  0.07781491     0.77000
C25         C  0.05533662  0.39149971  0.92465656     0.77500
C26         C  0.42871872  0.42866090  0.96295225     0.76400
C27         C  0.53278784  0.50046738  0.81796051     0.76800
C28         C  0.12833221  0.09073294  0.96214450     0.78000
C29         C  0.38213461  0.07548064  0.93921664     0.77000
C30         C  0.29870883  0.29500359  0.04044494     0.80100
N31         N  0.29855460  0.29346890  0.08863557    -0.78200
C32         C  0.27399319  0.26026904  0.11197346     0.82500
N33         N  0.25021676  0.22821346  0.08642158    -0.78200
C34         C  0.25023807  0.22945930  0.03839380     0.82600
N35         N  0.27464475  0.26276540  0.01534509    -0.79900
C36         C  0.04323554  0.45528241  0.35455230     0.80100
N37         N  0.03648584  0.45247043  0.30696887    -0.78200
C38         C  0.51377789  0.98750708  0.28124720     0.82500
N39         N  0.49120712  0.02101608  0.30597749    -0.78200
C40         C  0.49806515  0.02563230  0.35343150     0.82600
N41         N  0.02096619  0.48847694  0.37999380    -0.79900
Zn42       Zn  0.26483199  0.30127148  0.48742730     1.49700
Zn43       Zn  0.29047518  0.19584037  0.49144264     1.49400
Zn44       Zn  0.22427144  0.23351136  0.40828949     1.49100
Zn45       Zn  0.33344449  0.25753484  0.41045700     1.49500
O46         O  0.27790294  0.24704133  0.44958803    -1.84300
O47         O  0.25339268  0.28324398  0.55602210    -0.74900
O48         O  0.23528148  0.15249974  0.48791553    -0.74700
O49         O  0.17817967  0.28612468  0.40990240    -0.74200
O50         O  0.29049334  0.21625817  0.56054254    -0.74900
O51         O  0.20839782  0.33638842  0.46079098    -0.74500
O52         O  0.18902170  0.17580421  0.42936944    -0.75100
O53         O  0.31436127  0.26829039  0.34244054    -0.74500
O54         O  0.34947104  0.15982282  0.47030774    -0.75200
O55         O  0.24560853  0.23121590  0.33947331    -0.74600
O56         O  0.37427410  0.20122425  0.40939777    -0.75100
O57         O  0.37268345  0.30994094  0.43635240    -0.75000
O58         O  0.32267099  0.34231674  0.48766411    -0.74800
C59         C  0.26927250  0.24992012  0.58049939     0.77000
C60         C  0.19779133  0.14803404  0.46306133     0.77500
C61         C  0.17694659  0.32495116  0.43041822     0.76400
C62         C  0.28013897  0.25137174  0.31857355     0.76800
C63         C  0.37721457  0.16541082  0.43488062     0.78000
C64         C  0.36288655  0.34078370  0.46683780     0.77000
C65         C  0.50081026  0.46665031  0.54155445     0.80100
N66         N  0.52916836  0.49546526  0.51639946    -0.78200
C67         C  0.06526264  0.01625694  0.53973865     0.82500
N68         N  0.06233803  0.01998854  0.58754287    -0.78200
C69         C  0.53053098  0.49728581  0.61285711     0.82600
N70         N  0.50173725  0.46746185  0.58967460    -0.79900
C71         C  0.08500249  0.07505707  0.47946928    -0.20400
C72         C  0.10052800  0.04443064  0.51430105    -0.07000
C73         C  0.14872742  0.04486748  0.52812225     0.13900
C74         C  0.17947071  0.07764518  0.50892536    -0.20500
C75         C  0.16383589  0.11049627  0.47598244    -0.07000
C76         C  0.11589597  0.10817526  0.46005277     0.13900
C77         C  0.09617259  0.14101338  0.42401463    -0.23800
H78         H  0.04793990  0.07424926  0.46881275     0.15100
H79         H  0.21614643  0.07782315  0.52082635     0.15200
C80         C  0.16921192  0.01112069  0.56294360    -0.23800
H81         H  0.05819197  0.13384609  0.41609387     0.05400
H82         H  0.11628602  0.13783883  0.39029216     0.08600
H83         H  0.09849004  0.17664267  0.43761892     0.08600
H84         H  0.12122077  0.48714929  0.49608612     0.08600
H85         H  0.07642981  0.48152255  0.54066779     0.08600
H86         H  0.18193154  0.02959350  0.59494224     0.05400
C87         C  0.44271424  0.35711114  0.49904812    -0.20400
C88         C  0.39993296  0.37403332  0.48060084    -0.07000
C89         C  0.39205813  0.42178522  0.47951121     0.13900
C90         C  0.42732116  0.45149479  0.49680488    -0.20500
C91         C  0.46902099  0.43437938  0.51721469    -0.07000
C92         C  0.47699847  0.38663726  0.51830495     0.13900
C93         C  0.52061762  0.36575374  0.54052839    -0.23800
H94         H  0.44846657  0.32041123  0.50047949     0.15100
H95         H  0.42136413  0.48818384  0.49648523     0.15200
C96         C  0.34641074  0.44147842  0.46071873    -0.23800
H97         H  0.97931921  0.37237265  0.46877606     0.05400
H98         H  0.99490547  0.43073501  0.47955488     0.08600
H99         H  0.96875421  0.41504282  0.42387120     0.08600
H100        H  0.31576151  0.42899577  0.48186198     0.08600
H101        H  0.34171562  0.43142333  0.42306108     0.08600
H102        H  0.34633602  0.47935784  0.46316127     0.05400
C103        C  0.06227030  0.37782824  0.38370058    -0.20400
C104        C  0.07627975  0.42349908  0.37790243    -0.07000
C105        C  0.12226630  0.43727509  0.39216837     0.13900
C106        C  0.15324434  0.40473273  0.41163487    -0.20500
C107        C  0.14001207  0.35849507  0.41603823    -0.07000
C108        C  0.09339469  0.34508370  0.40269197     0.13900
C109        C  0.07577076  0.29666009  0.40897970    -0.23800
H110        H  0.02688224  0.36760049  0.37260900     0.15100
H111        H  0.18898277  0.41524848  0.42127765     0.15200
C112        C  0.14078064  0.48529105  0.38491638    -0.23800
H113        H  0.03737811  0.29349078  0.40033294     0.05400
H114        H  0.08058440  0.28588790  0.44636273     0.08600
H115        H  0.09530650  0.27302117  0.38510973     0.08600
H116        H  0.15185905  0.50017658  0.41934139     0.08600
H117        H  0.09715872  0.02927109  0.37964204     0.08600
H118        H  0.17221833  0.48424800  0.36106585     0.05400
C119        C  0.43908894  0.04996183  0.41366651    -0.20400
C120        C  0.47291771  0.06229484  0.37948405    -0.07000
C121        C  0.47852156  0.10890052  0.36751006     0.13900
C122        C  0.44843012  0.14163267  0.38818229    -0.20500
C123        C  0.41242973  0.12940234  0.42063669    -0.07000
C124        C  0.40845970  0.08268321  0.43412832     0.13900
C125        C  0.37073744  0.06626249  0.46802213    -0.23800
H126        H  0.43496602  0.01405808  0.42256278     0.15100
H127        H  0.45272084  0.17715315  0.37788460     0.15200
C128        C  0.51571789  0.12536014  0.33286931    -0.23800
H129        H  0.37210796  0.02865382  0.47272146     0.05400
H130        H  0.33489926  0.07468653  0.45412952     0.08600
H131        H  0.37599496  0.08231044  0.50330629     0.08600
H132        H  0.49805890  0.14130257  0.30187765     0.08600
H133        H  0.53929319  0.09762902  0.31994230     0.08600
H134        H  0.53871334  0.15134224  0.35017869     0.05400
C135        C  0.23854958  0.24079773  0.24134017    -0.20400
C136        C  0.27967949  0.25516440  0.26558132    -0.07000
C137        C  0.31841158  0.27257795  0.23849655     0.13900
C138        C  0.31503470  0.27392123  0.18877935    -0.20500
C139        C  0.27434259  0.25850163  0.16477388    -0.07000
C140        C  0.23522063  0.24230376  0.19171328     0.13900
C141        C  0.18904376  0.22783945  0.16896469    -0.23800
H142        H  0.20834143  0.22822113  0.26134593     0.15100
H143        H  0.34491946  0.28661710  0.16834243     0.15200
C144        C  0.36378123  0.28965414  0.26091240    -0.23800
H145        H  0.16120756  0.22005348  0.19574992     0.05400
H146        H  0.19438331  0.19630871  0.14764552     0.08600
H147        H  0.17541581  0.25579751  0.14612046     0.08600
H148        H  0.38074056  0.26175245  0.28147371     0.08600
H149        H  0.35606336  0.31933707  0.28432437     0.08600
H150        H  0.38999720  0.30133657  0.23402445     0.05400
C151        C  0.35426243  0.40848213  0.00605144    -0.20400
C152        C  0.39200879  0.39405096  0.97662989    -0.07000
C153        C  0.39505958  0.34685348  0.96448132     0.13900
C154        C  0.36190271  0.31601472  0.98366631    -0.20500
C155        C  0.32680814  0.33029434  0.01564086    -0.07000
C156        C  0.32174277  0.37736957  0.02556979     0.13900
C157        C  0.28205804  0.39616943  0.05587750    -0.23800
H158        H  0.35034957  0.44441784  0.01489104     0.15100
H159        H  0.36482841  0.28005019  0.97537458     0.15200
C160        C  0.43376609  0.32777968  0.93304865    -0.23800
H161        H  0.26182850  0.42201163  0.03534376     0.05400
H162        H  0.29720393  0.41288437  0.08783695     0.08600
H163        H  0.25633003  0.36964017  0.06734146     0.08600
H164        H  0.46909515  0.33378306  0.94944384     0.08600
H165        H  0.43219191  0.34407118  0.89759940     0.08600
H166        H  0.43000312  0.29024036  0.92772598     0.05400
C167        C  0.14788234  0.17197985  0.97524916    -0.20400
C168        C  0.16361242  0.12643964  0.97389946    -0.07000
C169        C  0.21000603  0.11584440  0.98982395     0.13900
C170        C  0.23863335  0.15091788  0.00845533    -0.20500
C171        C  0.22178433  0.19591952  0.01197322    -0.07000
C172        C  0.17594836  0.20669805  0.99503633     0.13900
C173        C  0.15411245  0.25352772  0.00034133    -0.23800
H174        H  0.11207103  0.18008098  0.96376339     0.15100
H175        H  0.27374468  0.14293257  0.02191744     0.12800
C176        C  0.22941239  0.06778006  0.98753793    -0.23800
H177        H  0.14176298  0.26561481  0.96534402     0.05400
H178        H  0.17899602  0.27936790  0.01493283     0.08600
H179        H  0.12285862  0.25140748  0.02434108     0.08600
H180        H  0.22679509  0.05447471  0.95077576     0.08600
H181        H  0.20927579  0.04501857  0.01175151     0.08600
H182        H  0.26736613  0.06650874  0.99829594     0.05400
C183        C  0.04440996  0.03686886  0.74077596    -0.20400
C184        C  0.53257410  0.49817358  0.76539437    -0.07000
C185        C  0.53864602  0.45672225  0.73981059     0.13900
C186        C  0.53748127  0.45750735  0.69001521    -0.20500
C187        C  0.53105153  0.49856248  0.66517036    -0.07000
C188        C  0.04579481  0.03692020  0.69106162     0.13900
C189        C  0.06394868  0.07950368  0.66671791    -0.23800
H190        H  0.05734870  0.06676710  0.75950200     0.15100
H191        H  0.54231837  0.42599557  0.67026486     0.15200
C192        C  0.54800476  0.41182595  0.76436242    -0.23800
H193        H  0.07136992  0.10757494  0.69227730     0.05400
H194        H  0.03691705  0.09229077  0.64137372     0.08600
H195        H  0.09783263  0.07211598  0.64801160     0.08600
H196        H  0.51660164  0.40161928  0.78573330     0.08600
H197        H  0.57963979  0.41509643  0.78762451     0.08600
H198        H  0.55506183  0.38380155  0.73862733     0.05400
C199        C  0.01514161  0.45006990  0.15181338    -0.20400
C200        C  0.48903360  0.97955606  0.13037980    -0.07000
C201        C  0.45047160  0.98050958  0.16295057     0.13900
C202        C  0.45981010  0.98276520  0.21187631    -0.20500
C203        C  0.50643485  0.98321282  0.22942699    -0.07000
C204        C  0.02386476  0.44877553  0.20086596     0.13900
C205        C  0.05825440  0.41319080  0.21875886    -0.23800
H206        H  0.03283666  0.42549227  0.12902317     0.15100
H207        H  0.43041406  0.98398151  0.23677998     0.15200
C208        C  0.39939739  0.97812167  0.14695491    -0.23800
H209        H  0.07282299  0.39173537  0.18961764     0.05400
H210        H  0.03996151  0.38978108  0.24381458     0.08600
H211        H  0.08892355  0.43013904  0.23626361     0.08600
H212        H  0.39392039  0.94723069  0.12459011     0.08600
H213        H  0.39002477  0.00934937  0.12673876     0.08600
H214        H  0.37443499  0.97590857  0.17742075     0.05400
C215        C  0.26117070  0.20613274  0.65575714    -0.20400
C216        C  0.26165029  0.24895302  0.63303650    -0.07000
C217        C  0.25402525  0.28885632  0.66091691     0.13900
C218        C  0.24694035  0.28463981  0.71015769    -0.20500
C219        C  0.24708597  0.24182245  0.73279402    -0.07000
C220        C  0.25370154  0.20194909  0.70483871     0.13900
C221        C  0.25102146  0.15459271  0.72579545    -0.23800
H222        H  0.26591732  0.17534780  0.63477673     0.15100
H223        H  0.24170512  0.31523934  0.73131941     0.15200
C224        C  0.25420328  0.33619945  0.63968964    -0.23800
H225        H  0.25324999  0.12754105  0.69815826     0.05400
H226        H  0.21665478  0.15019686  0.74468804     0.08600
H227        H  0.28107342  0.14912083  0.75049282     0.08600
H228        H  0.22392842  0.33999232  0.61485962     0.08600
H229        H  0.28827256  0.34230083  0.62076220     0.08600
H230        H  0.25038414  0.36322086  0.66719085     0.05400
C231        C  0.31514642  0.18641246  0.92246851    -0.20400
C232        C  0.28181275  0.17295120  0.88810243    -0.07000
C233        C  0.27673020  0.12588066  0.87715066     0.13900
C234        C  0.30841513  0.09421227  0.89677671    -0.20500
C235        C  0.34383184  0.10809119  0.92842853    -0.07000
C236        C  0.34617745  0.15422757  0.94296399     0.13900
C237        C  0.38224146  0.16911171  0.97919263    -0.23800
H238        H  0.31845021  0.22236185  0.93149601     0.15100
H239        H  0.30627556  0.05849652  0.88624170     0.15200
C240        C  0.23824188  0.10783053  0.84504586    -0.23800
H241        H  0.37879038  0.20585286  0.98805134     0.05400
H242        H  0.41875464  0.16296990  0.96557256     0.08600
H243        H  0.37695221  0.14931700  0.01233596     0.08600
H244        H  0.21334848  0.13479970  0.83311952     0.08600
H245        H  0.21684645  0.08188079  0.86436035     0.08600
H246        H  0.25454595  0.09134597  0.81349182     0.05400
C247        C  0.11870700  0.29185993  0.86196771    -0.20400
C248        C  0.16592929  0.29918663  0.87561905    -0.07000
C249        C  0.17646118  0.33485618  0.90782813     0.13900
C250        C  0.13945220  0.36320864  0.92421647    -0.20500
C251        C  0.09194658  0.35710517  0.90936845    -0.07000
C252        C  0.08154191  0.31981613  0.87847648     0.13900
C253        C  0.03170547  0.30850489  0.86248389    -0.23800
H254        H  0.11089671  0.26389841  0.83781137     0.15100
H255        H  0.14829211  0.39112955  0.94802037     0.15200
C256        C  0.22622604  0.34466512  0.92490676    -0.23800
H257        H  0.03065172  0.27668743  0.84091842     0.05400
H258        H  0.01755918  0.33638130  0.83992251     0.08600
H259        H  0.00831393  0.30316229  0.89374291     0.08600
H260        H  0.25314158  0.32111824  0.90977140     0.08600
H261        H  0.22742688  0.34154685  0.96408008     0.08600
H262        H  0.23642406  0.38012340  0.91500352     0.05400
C263        C  0.30159623  0.73143243  0.85382371     0.80100
N264        N  0.29451647  0.73008728  0.80625174    -0.78200
C265        C  0.26159534  0.75726434  0.78531145     0.82500
N266        N  0.23653018  0.78718590  0.81265940    -0.78200
C267        C  0.24363202  0.78926515  0.86027368     0.82600
N268        N  0.27607644  0.76122252  0.88084908    -0.79900
Zn269      Zn  0.46999244  0.52316249  0.98289030     1.49700
Zn270      Zn  0.08041358  0.00265658  0.99374278     1.49400
Zn271      Zn  0.45918369  0.93272205  0.90620185     1.49100
Zn272      Zn  0.54175819  0.55965745  0.90512847     1.49500
O273        O  0.47156726  0.98459265  0.94756543    -1.84300
O274        O  0.48399962  0.53188222  0.05219223    -0.74900
O275        O  0.11969936  0.94674577  0.97454008    -0.74700
O276        O  0.40149424  0.89613784  0.92831571    -0.74200
O277        O  0.01278638  0.46611474  0.05345913    -0.74900
O278        O  0.37661282  0.93821613  0.98908578    -0.74500
O279        O  0.07374524  0.91487888  0.91944550    -0.75100
O280        O  0.54923999  0.53630357  0.83808326    -0.74500
O281        O  0.06944579  0.53097539  0.98326847    -0.75200
O282        O  0.45258019  0.95332703  0.83811461    -0.74600
O283        O  0.03088041  0.57889100  0.93586792    -0.75100
O284        O  0.48613096  0.60279141  0.90204199    -0.75000
O285        O  0.43476409  0.57784121  0.95543544    -0.74800
C286        C  0.51606919  0.51530056  0.07890721     0.77000
C287        C  0.11200657  0.91580875  0.94346810     0.77500
C288        C  0.37289600  0.90288104  0.96278828     0.76400
C289        C  0.47083832  0.98745784  0.81660451     0.76800
C290        C  0.06454967  0.57028396  0.96451688     0.78000
C291        C  0.44607284  0.60598312  0.92273543     0.77000
C292        C  0.23574891  0.77563737  0.03723480     0.80100
N293        N  0.23513701  0.77813142  0.08528306    -0.78200
C294        C  0.20798102  0.74900034  0.11122079     0.82500
N295        N  0.18139882  0.71703654  0.08850433    -0.78200
C296        C  0.18178410  0.71413021  0.04050205     0.82600
N297        N  0.20939120  0.74318552  0.01472022    -0.79900
C298        C  0.01875644  0.98747994  0.36259115     0.80100
N299        N  0.02573361  0.98916457  0.31511546    -0.78200
C300        C  0.48960628  0.50795719  0.28427501     0.82500
N301        N  0.46028553  0.53874364  0.30569750    -0.78200
C302        C  0.45166609  0.53658138  0.35307903     0.82600
N303        N  0.98995290  0.01867228  0.38403318    -0.79900
Zn304      Zn  0.21314931  0.80479053  0.49013323     1.49700
Zn305      Zn  0.23490941  0.70029899  0.48786719     1.49400
Zn306      Zn  0.16632580  0.74521473  0.40986889     1.49100
Zn307      Zn  0.27726115  0.76464482  0.40658096     1.49500
O308        O  0.22304068  0.75337072  0.44830021    -1.84300
O309        O  0.21062205  0.78689098  0.55898358    -0.74900
O310        O  0.17630853  0.66049714  0.48742196    -0.74700
O311        O  0.12506880  0.80186682  0.41304792    -0.74200
O312        O  0.24617297  0.71931887  0.55695012    -0.74900
O313        O  0.15763640  0.84346167  0.47040765    -0.74500
O314        O  0.12837263  0.69084388  0.43329237    -0.75100
O315        O  0.25532285  0.77114537  0.33875671    -0.74500
O316        O  0.28992208  0.66298255  0.46103721    -0.75200
O317        O  0.18394410  0.73889518  0.34053112    -0.74600
O318        O  0.31982600  0.70901299  0.40592677    -0.75100
O319        O  0.31546344  0.82052036  0.42770130    -0.75000
O320        O  0.26924972  0.84516793  0.48585784    -0.74800
C321        C  0.23074892  0.75384208  0.58034331     0.77000
C322        C  0.13700694  0.66090919  0.46495004     0.77500
C323        C  0.12666749  0.83818622  0.43804049     0.76400
C324        C  0.21915402  0.75502982  0.31725763     0.76800
C325        C  0.31983565  0.67095955  0.42798578     0.78000
C326        C  0.30666010  0.84887118  0.46105753     0.77000
C327        C  0.44856684  0.96965471  0.53743944     0.80100
N328        N  0.47873777  0.99805517  0.51413404    -0.78200
C329        C  0.00255983  0.53201065  0.54063486     0.82500
N330        N  0.00358253  0.53103363  0.58875853    -0.78200
C331        C  0.47857013  0.99584470  0.61068600     0.82600
N332        N  0.44830948  0.96896637  0.58556902    -0.79900
C333        C  0.01974214  0.60447470  0.49929733    -0.20400
C334        C  0.03585963  0.56179396  0.51500490    -0.07000
C335        C  0.08435228  0.55029702  0.51035926     0.13900
C336        C  0.11597145  0.58253168  0.49133412    -0.20500
C337        C  0.10051554  0.62627196  0.47750840    -0.07000
C338        C  0.05150121  0.63721895  0.48107094     0.13900
C339        C  0.03286051  0.68425814  0.46928159    -0.23800
H340        H  0.98245449  0.61304134  0.50361081     0.15100
H341        H  0.15339208  0.57385935  0.48865563     0.15200
C342        C  0.10403643  0.50485425  0.52637524    -0.23800
H343        H  0.99415602  0.68724460  0.47659347     0.05400
H344        H  0.03844019  0.69175123  0.43119107     0.08600
H345        H  0.05144170  0.71044749  0.49102428     0.08600
H346        H  0.19960529  0.99324650  0.54619453     0.08600
H347        H  0.14371038  0.98427287  0.57403347     0.08600
H348        H  0.13098705  0.51062336  0.55445823     0.05400
C349        C  0.38904419  0.88062402  0.45903184    -0.20400
C350        C  0.34149172  0.88518910  0.47389296    -0.07000
C351        C  0.32939170  0.92203559  0.50466340     0.13900
C352        C  0.36554609  0.94928008  0.52361291    -0.20500
C353        C  0.41314818  0.94241888  0.51151237    -0.07000
C354        C  0.42509892  0.90883961  0.47739214     0.13900
C355        C  0.47533984  0.90021589  0.46110256    -0.23800
H356        H  0.39875515  0.85332633  0.43471129     0.15100
H357        H  0.35664169  0.97620763  0.54873468     0.15200
C358        C  0.27883288  0.93365548  0.51806504    -0.23800
H359        H  0.98591043  0.84936382  0.60113471     0.05400
H360        H  0.03512720  0.88275971  0.57899563     0.08600
H361        H  0.02286366  0.82817645  0.55349068     0.08600
H362        H  0.26365270  0.90709410  0.54169412     0.08600
H363        H  0.25681291  0.93729072  0.48567692     0.08600
H364        H  0.27700844  0.96656484  0.53773805     0.05400
C365        C  0.02153930  0.90988001  0.39699206    -0.20400
C366        C  0.04391329  0.95227615  0.38995254    -0.07000
C367        C  0.09239551  0.95744480  0.40173462     0.13900
C368        C  0.11717341  0.92018163  0.42059491    -0.20500
C369        C  0.09549803  0.87717231  0.42591520    -0.07000
C370        C  0.04681488  0.87203703  0.41457305     0.13900
C371        C  0.02152892  0.82690086  0.42061640    -0.23800
H372        H  0.98470093  0.90580064  0.38649166     0.15100
H373        H  0.15473252  0.92409166  0.42847063     0.15200
C374        C  0.11990800  0.00079011  0.39214020    -0.23800
H375        H  0.98306079  0.82975202  0.41228709     0.05400
H376        H  0.02495200  0.81512039  0.45781437     0.08600
H377        H  0.03692401  0.80082269  0.39645024     0.08600
H378        H  0.13805342  0.01210833  0.42497124     0.08600
H379        H  0.11427092  0.50859899  0.36890689     0.08600
H380        H  0.14743368  0.99395834  0.36477374     0.05400
C381        C  0.37723822  0.55632278  0.39538105    -0.20400
C382        C  0.42041144  0.57094748  0.37568392    -0.07000
C383        C  0.43132486  0.61819366  0.37522637     0.13900
C384        C  0.39844605  0.64957529  0.39388454    -0.20500
C385        C  0.35478751  0.63525633  0.41327954    -0.07000
C386        C  0.34407436  0.58773588  0.41390471     0.13900
C387        C  0.29679224  0.56995853  0.43128538    -0.23800
H388        H  0.36864959  0.52015757  0.39434703     0.15100
H389        H  0.40701679  0.68580923  0.39294734     0.15200
C390        C  0.47731831  0.63681347  0.35553369    -0.23800
H391        H  0.29318051  0.53247794  0.42574605     0.05400
H392        H  0.26744712  0.58673356  0.41161798     0.08600
H393        H  0.29292488  0.57678923  0.46978697     0.08600
H394        H  0.46968198  0.65888787  0.32450085     0.08600
H395        H  0.50257315  0.60973436  0.34444091     0.08600
H396        H  0.49526309  0.65780248  0.38297089     0.05400
C397        C  0.17375090  0.74451547  0.24216205    -0.20400
C398        C  0.21736247  0.75490258  0.26423320    -0.07000
C399        C  0.25751416  0.76422916  0.23505140     0.13900
C400        C  0.25281515  0.76219474  0.18554560    -0.20500
C401        C  0.20948938  0.75098193  0.16381457    -0.07000
C402        C  0.16921718  0.74247895  0.19263491     0.13900
C403        C  0.12089035  0.73273853  0.17176502    -0.23800
H404        H  0.14261837  0.73797017  0.26379297     0.15100
H405        H  0.28366304  0.76878245  0.16348794     0.15200
C406        C  0.30582382  0.77575031  0.25501167    -0.23800
H407        H  0.09293855  0.73050761  0.19952755     0.05400
H408        H  0.12122431  0.69949607  0.15269129     0.08600
H409        H  0.11079450  0.76061909  0.14707405     0.08600
H410        H  0.31843533  0.74744045  0.27795253     0.08600
H411        H  0.30396790  0.80817245  0.27552502     0.08600
H412        H  0.33283797  0.78072008  0.22670527     0.05400
C413        C  0.29396138  0.88577417  0.99780503    -0.20400
C414        C  0.33457877  0.86936143  0.97409494    -0.07000
C415        C  0.33906412  0.82156809  0.96621648     0.13900
C416        C  0.30426894  0.79173186  0.98456765    -0.20500
C417        C  0.26536340  0.80833620  0.01049900    -0.07000
C418        C  0.25939206  0.85604186  0.01594413     0.13900
C419        C  0.21736604  0.87679671  0.04137684    -0.23800
H420        H  0.28948520  0.92229774  0.00319294     0.15100
H421        H  0.30882390  0.75508886  0.98088320     0.15200
C422        C  0.38158910  0.80137443  0.94125697    -0.23800
H423        H  0.19989280  0.90221533  0.01805446     0.05400
H424        H  0.22973100  0.89457145  0.07391037     0.08600
H425        H  0.19005869  0.85116148  0.05138320     0.08600
H426        H  0.41476916  0.81176938  0.95963172     0.08600
H427        H  0.38254006  0.81313594  0.90389411     0.08600
H428        H  0.38043770  0.76339925  0.94102595     0.05400
C429        C  0.07442102  0.64756027  0.99793410    -0.20400
C430        C  0.09596768  0.60799492  0.97960527    -0.07000
C431        C  0.14602656  0.60433544  0.97958846     0.13900
C432        C  0.17329787  0.64051063  0.99808634    -0.20500
C433        C  0.15166342  0.67972835  0.01704525    -0.07000
C434        C  0.10153400  0.68314709  0.01740488     0.13900
C435        C  0.07536347  0.72308217  0.03913543    -0.23800
H436        H  0.03592910  0.64998920  0.99872038     0.15100
H437        H  0.21155196  0.63729453  0.99974543     0.12800
C438        C  0.17068878  0.56261600  0.95996672    -0.23800
H439        H  0.05058220  0.73790600  0.01275539     0.05400
H440        H  0.09937801  0.75079683  0.05132076     0.08600
H441        H  0.05425919  0.71099426  0.06996601     0.08600
H442        H  0.16012138  0.55731651  0.92247272     0.08600
H443        H  0.16093630  0.53194162  0.98098724     0.08600
H444        H  0.20998708  0.56624490  0.96119142     0.05400
C445        C  0.01192510  0.50532768  0.74327926    -0.20400
C446        C  0.47258818  0.98828944  0.76366635    -0.07000
C447        C  0.46850439  0.94829295  0.73515037     0.13900
C448        C  0.47074366  0.95218397  0.68556856    -0.20500
C449        C  0.47771674  0.99456707  0.66327950    -0.07000
C450        C  0.01502273  0.50881032  0.69369568     0.13900
C451        C  0.06295705  0.51821211  0.67168153    -0.23800
H452        H  0.04350744  0.51045205  0.76458540     0.15100
H453        H  0.46757679  0.92164737  0.66390998     0.15200
C454        C  0.46305215  0.90108734  0.75608331    -0.23800
H455        H  0.09159806  0.51953790  0.69868913     0.05400
H456        H  0.06261558  0.55181208  0.65342886     0.08600
H457        H  0.07203516  0.49064290  0.64606156     0.08600
H458        H  0.42878762  0.89842413  0.77545630     0.08600
H459        H  0.49314779  0.89399044  0.78034970     0.08600
H460        H  0.46304345  0.87400121  0.72838940     0.05400
C461        C  0.04985390  0.99905450  0.16157624    -0.20400
C462        C  0.50898187  0.51544432  0.13167751    -0.07000
C463        C  0.46588683  0.52969379  0.15388047     0.13900
C464        C  0.46142168  0.52706794  0.20339701    -0.20500
C465        C  0.49809458  0.51028103  0.23210001    -0.07000
C466        C  0.04781017  0.99811386  0.21137255     0.13900
C467        C  0.08564234  0.97132072  0.23710709    -0.23800
H468        H  0.07743982  0.97960723  0.14375924     0.15100
H469        H  0.42829184  0.53751341  0.21987580     0.15200
C470        C  0.42366851  0.54724947  0.12642573    -0.23800
H471        H  0.11290402  0.95739184  0.21246803     0.05400
H472        H  0.06948860  0.94163764  0.25562074     0.08600
H473        H  0.10431418  0.99386111  0.26279196     0.08600
H474        H  0.41077139  0.52046622  0.10158771     0.08600
H475        H  0.43362807  0.57871740  0.10675373     0.08600
H476        H  0.39339749  0.55634096  0.14996846     0.05400
C477        C  0.25107693  0.71543000  0.65674766    -0.20400
C478        C  0.23696241  0.75557072  0.63317112    -0.07000
C479        C  0.23064228  0.79615463  0.66054576     0.13900
C480        C  0.23879709  0.79515222  0.70971797    -0.20500
C481        C  0.25353598  0.75518403  0.73299345    -0.07000
C482        C  0.25940928  0.71456974  0.70589628     0.13900
C483        C  0.27313876  0.66961485  0.72823721    -0.23800
H484        H  0.25572276  0.68416464  0.63654946     0.15100
H485        H  0.23429425  0.82630949  0.73015172     0.15200
C486        C  0.21626970  0.84123079  0.63881676    -0.23800
H487        H  0.27244669  0.64100939  0.70225020     0.05400
H488        H  0.24783720  0.66102755  0.75715050     0.08600
H489        H  0.30986965  0.67164762  0.74235703     0.08600
H490        H  0.18038654  0.83822452  0.62279575     0.08600
H491        H  0.24268399  0.85159244  0.61158009     0.08600
H492        H  0.21453038  0.86916918  0.66553543     0.05400
C493        C  0.38405283  0.70285469  0.85486495    -0.20400
C494        C  0.33847429  0.70170165  0.87494592    -0.07000
C495        C  0.32924647  0.67104260  0.91253238     0.13900
C496        C  0.36564434  0.64198689  0.92842441    -0.20500
C497        C  0.41110022  0.64170604  0.90731333    -0.07000
C498        C  0.42051853  0.67368238  0.87038624     0.13900
C499        C  0.46835470  0.67766384  0.84635656    -0.23800
H500        H  0.39104063  0.72673452  0.82631079     0.15100
H501        H  0.35756871  0.61810315  0.95666892     0.15200
C502        C  0.28104212  0.66587593  0.93522582    -0.23800
H503        H  0.46906233  0.70564367  0.81976322     0.05400
H504        H  0.47688040  0.64542445  0.82725815     0.08600
H505        H  0.49622936  0.68544921  0.87299881     0.08600
H506        H  0.25332967  0.68788838  0.91947884     0.08600
H507        H  0.28375103  0.67417335  0.97352099     0.08600
H508        H  0.26891692  0.62987697  0.93129541     0.05400
C509        C  0.17498247  0.80462705  0.91275451    -0.20400
C510        C  0.21528251  0.82142170  0.88916525    -0.07000
C511        C  0.22444946  0.86902683  0.88923571     0.13900
C512        C  0.19176413  0.89882904  0.91091375    -0.20500
C513        C  0.14961419  0.88231789  0.93143280    -0.07000
C514        C  0.14165025  0.83459436  0.93332297     0.13900
C515        C  0.09773520  0.81527502  0.95634493    -0.23800
H516        H  0.16834497  0.76803925  0.91293652     0.15100
H517        H  0.19794386  0.93546988  0.90935050     0.15200
C518        C  0.26751691  0.88957086  0.86551713    -0.23800
H519        H  0.09756423  0.77731074  0.95481376     0.05400
H520        H  0.06542321  0.82760307  0.93787167     0.08600
H521        H  0.09636683  0.82600718  0.99408628     0.08600
H522        H  0.29198430  0.86338821  0.85080497     0.08600
H523        H  0.28776927  0.91030528  0.89158682     0.08600
H524        H  0.25597829  0.91224604  0.83619878     0.05400
C525        C  0.80672114  0.23590159  0.85358807     0.80100
N526        N  0.79833558  0.23319883  0.80625998    -0.78200
C527        C  0.76462812  0.25968429  0.78548021     0.82500
N528        N  0.74019265  0.29004742  0.81286115    -0.78200
C529        C  0.74885933  0.29352040  0.86006877     0.82600
N530        N  0.78187214  0.26617692  0.88047042    -0.79900
Zn531      Zn  0.97044558  0.02717395  0.98648067     1.49700
Zn532      Zn  0.57971476  0.50171315  0.99325578     1.49400
Zn533      Zn  0.95734762  0.43410362  0.90613024     1.49100
Zn534      Zn  0.04211780  0.06096620  0.90643720     1.49500
O535        O  0.96992434  0.48533323  0.94839713    -1.84300
O536        O  0.98672116  0.03599177  0.05564431    -0.74900
O537        O  0.62105538  0.44732669  0.97434906    -0.74700
O538        O  0.89975709  0.39728648  0.92894003    -0.74200
O539        O  0.51649244  0.96489513  0.05172764    -0.74900
O540        O  0.87462600  0.43974830  0.98940179    -0.74500
O541        O  0.57716401  0.41406649  0.91844699    -0.75100
O542        O  0.04734580  0.03711917  0.83931364    -0.74500
O543        O  0.56942137  0.03340278  0.98215113    -0.75200
O544        O  0.94948467  0.45691904  0.83850332    -0.74600
O545        O  0.52987551  0.07996497  0.93406904    -0.75100
O546        O  0.98791545  0.10532509  0.90403779    -0.75000
O547        O  0.93711520  0.08313577  0.95928652    -0.74800
C548        C  0.02040894  0.02072609  0.08128655     0.77000
C549        C  0.61482292  0.41617254  0.94321813     0.77500
C550        C  0.87120971  0.40413576  0.96348881     0.76400
C551        C  0.96825411  0.49159900  0.81823285     0.76800
C552        C  0.56345745  0.07253121  0.96327741     0.78000
C553        C  0.94861830  0.11023985  0.92570756     0.77000
C554        C  0.73421740  0.27723821  0.03932344     0.80100
N555        N  0.73419770  0.27892532  0.08740726    -0.78200
C556        C  0.70643183  0.25010362  0.11309630     0.82500
N557        N  0.67852870  0.21933660  0.09006415    -0.78200
C558        C  0.67827283  0.21731992  0.04196998     0.82600
N559        N  0.70665388  0.24594749  0.01651536    -0.79900
C560        C  0.50142917  0.47206841  0.35818693     0.80100
N561        N  0.50993004  0.47471054  0.31091278    -0.78200
C562        C  0.00455854  0.02161398  0.28824849     0.82500
N563        N  0.97567803  0.05257103  0.31001401    -0.78200
C564        C  0.96847705  0.05177960  0.35773570     0.82600
N565        N  0.47229908  0.50309906  0.37938405    -0.79900
Zn566      Zn  0.70818126  0.30408231  0.49175879     1.49700
Zn567      Zn  0.73665130  0.20017935  0.48917090     1.49400
Zn568      Zn  0.66684410  0.24195551  0.41081588     1.49100
Zn569      Zn  0.77599171  0.26746415  0.40930133     1.49500
O570        O  0.72213218  0.25315470  0.45009459    -1.84300
O571        O  0.70454739  0.28471583  0.56038009    -0.74900
O572        O  0.68037605  0.15736551  0.48769607    -0.74700
O573        O  0.62215269  0.29577978  0.41287318    -0.74200
O574        O  0.74476296  0.21958665  0.55810047    -0.74900
O575        O  0.65045258  0.34007223  0.47023329    -0.74500
O576        O  0.63143612  0.18634517  0.43370876    -0.75100
O577        O  0.75504868  0.27231154  0.34060106    -0.74500
O578        O  0.79564044  0.16647416  0.46479816    -0.75200
O579        O  0.68565402  0.23611551  0.34212486    -0.74600
O580        O  0.82204004  0.21486039  0.41051155    -0.75100
O581        O  0.81107350  0.32451673  0.43223992    -0.75000
O582        O  0.76332451  0.34664243  0.49026408    -0.74800
C583        C  0.72660892  0.25271060  0.58164271     0.77000
C584        C  0.64111238  0.15659383  0.46516148     0.77500
C585        C  0.62039124  0.33232389  0.43740293     0.76400
C586        C  0.71998384  0.25401408  0.31901108     0.76800
C587        C  0.82579822  0.17712703  0.43280062     0.78000
C588        C  0.80124346  0.35168617  0.46637122     0.77000
C589        C  0.94212423  0.47641701  0.54081237     0.80100
N590        N  0.97164870  0.50485213  0.51660650    -0.78200
C591        C  0.50947421  0.02455759  0.53899602     0.82500
N592        N  0.50943883  0.02334178  0.58708126    -0.78200
C593        C  0.97386908  0.50301346  0.61322676     0.82600
N594        N  0.94305355  0.47612183  0.58887074    -0.79900
C595        C  0.52524433  0.09693021  0.49761699    -0.20400
C596        C  0.54250464  0.05505975  0.51427326    -0.07000
C597        C  0.59144430  0.04508226  0.51115598     0.13900
C598        C  0.62235047  0.07807597  0.49248701    -0.20500
C599        C  0.60566562  0.12101653  0.47752682    -0.07000
C600        C  0.55621196  0.13045056  0.47979423     0.13900
C601        C  0.53610941  0.17671486  0.46712862    -0.23800
H602        H  0.48756237  0.10431337  0.50093420     0.15100
H603        H  0.66014448  0.07063090  0.49092451     0.15200
C604        C  0.61224525  0.00051358  0.52835629    -0.23800
H605        H  0.49721359  0.17854370  0.47381937     0.05400
H606        H  0.54202777  0.18391972  0.42904088     0.08600
H607        H  0.55336269  0.20374579  0.48885301     0.08600
H608        H  0.68301376  0.48331550  0.51096681     0.08600
H609        H  0.63529669  0.47924127  0.55254696     0.08600
H610        H  0.63817725  0.00752351  0.55708500     0.05400
C611        C  0.88260244  0.38610544  0.46352735    -0.20400
C612        C  0.83559585  0.38816406  0.48071160    -0.07000
C613        C  0.82374717  0.42288899  0.51415167     0.13900
C614        C  0.85952807  0.45159211  0.53160855    -0.20500
C615        C  0.90665968  0.44782536  0.51623566    -0.07000
C616        C  0.91835289  0.41525299  0.48095770     0.13900
C617        C  0.96818869  0.40833215  0.46254326    -0.23800
H618        H  0.89228818  0.36008844  0.43772539     0.15100
H619        H  0.85070838  0.47724515  0.55814043     0.15200
C620        C  0.77377656  0.43061076  0.53201012    -0.23800
H621        H  0.50980275  0.34395570  0.57088374     0.05400
H622        H  0.54634807  0.39163220  0.55352833     0.08600
H623        H  0.53941851  0.34410754  0.51422850     0.08600
H624        H  0.76229427  0.40165521  0.55469616     0.08600
H625        H  0.74936022  0.43447385  0.50146696     0.08600
H626        H  0.77095079  0.46217540  0.55388641     0.05400
C627        C  0.51036470  0.39393331  0.39079120    -0.20400
C628        C  0.52817788  0.43857188  0.38642269    -0.07000
C629        C  0.57444124  0.44863775  0.40273286     0.13900
C630        C  0.60195912  0.41374489  0.42274731    -0.20500
C631        C  0.58559516  0.36833807  0.42444139    -0.07000
C632        C  0.53879855  0.35836260  0.40877686     0.13900
C633        C  0.51878088  0.31043354  0.41025658    -0.23800
H634        H  0.47494579  0.38640413  0.37769027     0.15100
H635        H  0.63792093  0.42161403  0.43412263     0.15200
C636        C  0.59703204  0.49510934  0.39679380    -0.23800
H637        H  0.48067573  0.30971246  0.39995900     0.05400
H638        H  0.52162891  0.29628762  0.44658087     0.08600
H639        H  0.53831604  0.28797079  0.38519364     0.08600
H640        H  0.60981416  0.50746134  0.43151565     0.08600
H641        H  0.62046089  0.01529243  0.37198474     0.08600
H642        H  0.62798868  0.49232066  0.37248750     0.05400
C643        C  0.90628249  0.07140017  0.41782088    -0.20400
C644        C  0.93577850  0.08561345  0.38035197    -0.07000
C645        C  0.93245149  0.13143388  0.36455263     0.13900
C646        C  0.89770366  0.16037256  0.38404833    -0.20500
C647        C  0.86541331  0.14529331  0.41898536    -0.07000
C648        C  0.87098234  0.10025204  0.43712175     0.13900
C649        C  0.83982291  0.08150877  0.47607208    -0.23800
H650        H  0.90969270  0.03706934  0.43101722     0.15100
H651        H  0.89521725  0.19500137  0.37072855     0.15200
C652        C  0.96595148  0.15082093  0.32785899    -0.23800
H653        H  0.85008679  0.04610583  0.48606711     0.05400
H654        H  0.80223122  0.08037597  0.46420612     0.08600
H655        H  0.84311319  0.10324627  0.50822627     0.08600
H656        H  0.95920376  0.13493756  0.29280060     0.08600
H657        H  0.00334601  0.14470516  0.33868978     0.08600
H658        H  0.96126405  0.18833487  0.32354795     0.05400
C659        C  0.67358978  0.24574967  0.24437452    -0.20400
C660        C  0.71791588  0.25377757  0.26606142    -0.07000
C661        C  0.75832579  0.26068674  0.23664851     0.13900
C662        C  0.75303757  0.25941931  0.18713073    -0.20500
C663        C  0.70882062  0.25098631  0.16572186    -0.07000
C664        C  0.66846606  0.24421681  0.19489737     0.13900
C665        C  0.61951244  0.23688751  0.17445378    -0.23800
H666        H  0.64233059  0.24086263  0.26630639     0.15100
H667        H  0.78402541  0.26442243  0.16482017     0.15200
C668        C  0.80744687  0.26840185  0.25653957    -0.23800
H669        H  0.59177473  0.23556995  0.20249513     0.05400
H670        H  0.61807946  0.20388542  0.15498142     0.08600
H671        H  0.61051481  0.26545858  0.15019207     0.08600
H672        H  0.81745734  0.23937518  0.27981542     0.08600
H673        H  0.80846160  0.30099643  0.27679541     0.08600
H674        H  0.83475751  0.27090827  0.22816675     0.05400
C675        C  0.79209109  0.38700155  0.99804246    -0.20400
C676        C  0.83328160  0.37043772  0.97542988    -0.07000
C677        C  0.83889110  0.32249553  0.96973982     0.13900
C678        C  0.80411518  0.29274349  0.98830565    -0.20500
C679        C  0.76436224  0.30960635  0.01276962    -0.07000
C680        C  0.75778203  0.35734835  0.01684678     0.13900
C681        C  0.71553507  0.37824248  0.04178441    -0.23800
H682        H  0.78702076  0.42357021  0.00212845     0.15100
H683        H  0.80930085  0.25614009  0.98600513     0.15200
C684        C  0.88264025  0.30219053  0.94708934    -0.23800
H685        H  0.69801027  0.40325787  0.01808799     0.05400
H686        H  0.72769723  0.39658988  0.07404211     0.08600
H687        H  0.68837783  0.35259524  0.05217739     0.08600
H688        H  0.91494782  0.31404820  0.96607591     0.08600
H689        H  0.88464700  0.31246365  0.90930315     0.08600
H690        H  0.88227475  0.26421586  0.94846463     0.05400
C691        C  0.57152990  0.14950604  0.99876089    -0.20400
C692        C  0.59383180  0.11106565  0.97872144    -0.07000
C693        C  0.64399505  0.10887469  0.97768428     0.13900
C694        C  0.67059796  0.14523765  0.99676656    -0.20500
C695        C  0.64829072  0.18300733  0.01796431    -0.07000
C696        C  0.59806276  0.18516534  0.01913794     0.13900
C697        C  0.57127814  0.22408079  0.04207597    -0.23800
H698        H  0.53301273  0.15090308  0.00020258     0.15100
H699        H  0.70901025  0.14325534  0.99705108     0.12800
C700        C  0.66951987  0.06838139  0.95648703    -0.23800
H701        H  0.54693808  0.23981170  0.01583033     0.05400
H702        H  0.59492112  0.25144734  0.05572469     0.08600
H703        H  0.54981363  0.21075124  0.07211348     0.08600
H704        H  0.65846399  0.06375963  0.91904673     0.08600
H705        H  0.66101673  0.03692776  0.97680226     0.08600
H706        H  0.70871800  0.07303700  0.95718411     0.05400
C707        C  0.47939772  0.03072737  0.74107232    -0.20400
C708        C  0.96893933  0.49439505  0.76593692    -0.07000
C709        C  0.92758512  0.48777984  0.73849825     0.13900
C710        C  0.93045217  0.49163555  0.68901384    -0.20500
C711        C  0.97361482  0.50188021  0.66596153    -0.07000
C712        C  0.48209419  0.03443288  0.69151998     0.13900
C713        C  0.48793047  0.08129842  0.66991003    -0.23800
H714        H  0.48231187  0.06153394  0.76231875     0.15100
H715        H  0.89852397  0.48679128  0.66817486     0.15200
C716        C  0.88003939  0.47817683  0.76123766    -0.23800
H717        H  0.48744770  0.10874597  0.69720629     0.05400
H718        H  0.45843168  0.08802448  0.64478314     0.08600
H719        H  0.52252997  0.08362072  0.65111182     0.08600
H720        H  0.87111071  0.50594623  0.78668141     0.08600
H721        H  0.88107763  0.44492973  0.78014210     0.08600
H722        H  0.85108402  0.47623903  0.73460057     0.05400
C723        C  0.54611989  0.49957910  0.16072291    -0.20400
C724        C  0.01684584  0.02364554  0.13429079    -0.07000
C725        C  0.98157467  0.04968173  0.15845789     0.13900
C726        C  0.97934491  0.04854193  0.20823740    -0.20500
C727        C  0.01119063  0.02247792  0.23545918    -0.07000
C728        C  0.54136317  0.49672023  0.21030597     0.13900
C729        C  0.58334508  0.48029338  0.23876881    -0.23800
H730        H  0.57931629  0.48894904  0.14455463     0.15100
H731        H  0.95162855  0.06786211  0.22597703     0.15200
C732        C  0.94608462  0.07931513  0.13277853    -0.23800
H733        H  0.61518551  0.47461700  0.21616165     0.05400
H734        H  0.57484437  0.44717043  0.25600200     0.08600
H735        H  0.59283771  0.50620509  0.26601984     0.08600
H736        H  0.92229849  0.05774256  0.11071423     0.08600
H737        H  0.96505881  0.10464512  0.11033202     0.08600
H738        H  0.92306904  0.09880762  0.15768552     0.05400
C739        C  0.75533031  0.21710312  0.65674335    -0.20400
C740        C  0.73288056  0.25432671  0.63446690    -0.07000
C741        C  0.71946791  0.29245760  0.66294754     0.13900
C742        C  0.73028601  0.29259647  0.71158800    -0.20500
C743        C  0.75414282  0.25603370  0.73350535    -0.07000
C744        C  0.76612250  0.21726818  0.70540895     0.13900
C745        C  0.78962600  0.17531785  0.72585057    -0.23800
H746        H  0.76520621  0.18747993  0.63576488     0.15100
H747        H  0.72052810  0.32224406  0.73258899     0.15200
C748        C  0.69426121  0.33375103  0.64304733    -0.23800
H749        H  0.79347964  0.14757087  0.69914308     0.05400
H750        H  0.76784528  0.16157428  0.75544991     0.08600
H751        H  0.82591744  0.18391501  0.73843597     0.08600
H752        H  0.65976128  0.32326629  0.62731315     0.08600
H753        H  0.71691778  0.35059745  0.61595573     0.08600
H754        H  0.68640284  0.35973963  0.67076705     0.05400
C755        C  0.88922625  0.20784340  0.85694531    -0.20400
C756        C  0.84297331  0.20609273  0.87521910    -0.07000
C757        C  0.83242862  0.17522232  0.91226715     0.13900
C758        C  0.86832452  0.14634628  0.92938653    -0.20500
C759        C  0.91448310  0.14643681  0.90993017    -0.07000
C760        C  0.92521862  0.17878960  0.87369159     0.13900
C761        C  0.97400082  0.18335436  0.85177601    -0.23800
H762        H  0.89709828  0.23204300  0.82890336     0.15100
H763        H  0.85927701  0.12214663  0.95705132     0.15200
C764        C  0.78332703  0.16966594  0.93301500    -0.23800
H765        H  0.97562791  0.21182558  0.82580993     0.05400
H766        H  0.98342434  0.15161927  0.83223034     0.08600
H767        H  0.00072709  0.19058479  0.87973028     0.08600
H768        H  0.75620679  0.19182163  0.91644526     0.08600
H769        H  0.78440199  0.17748137  0.97149104     0.08600
H770        H  0.77143973  0.13369300  0.92821660     0.05400
C771        C  0.68095016  0.30702953  0.91338694    -0.20400
C772        C  0.72026916  0.32498605  0.88912773    -0.07000
C773        C  0.72819365  0.37275210  0.88897434     0.13900
C774        C  0.69482399  0.40166346  0.91075878    -0.20500
C775        C  0.65348061  0.38392084  0.93177678    -0.07000
C776        C  0.64709231  0.33603519  0.93434728     0.13900
C777        C  0.60436546  0.31554749  0.95856127    -0.23800
H778        H  0.67549399  0.27029792  0.91383124     0.15100
H779        H  0.69976339  0.43842496  0.90889708     0.15200
C780        C  0.77060587  0.39432568  0.86504708    -0.23800
H781        H  0.60556775  0.27754860  0.95794030     0.05400
H782        H  0.57126854  0.32644875  0.94049712     0.08600
H783        H  0.60330989  0.32691247  0.99611034     0.08600
H784        H  0.79561452  0.36870657  0.85016503     0.08600
H785        H  0.79048849  0.41546223  0.89106798     0.08600
H786        H  0.75837675  0.41678973  0.83583741     0.05400
C787        C  0.75946965  0.71187426  0.85831652     0.80100
N788        N  0.76713458  0.71256684  0.81079099    -0.78200
C789        C  0.74400001  0.74285372  0.78263325     0.82500
N790        N  0.71286674  0.77266864  0.80284519    -0.78200
C791        C  0.70540830  0.77267307  0.85042020     0.82600
N792        N  0.72869249  0.74212375  0.87823529    -0.79900
Zn793      Zn  0.91715557  0.49473341  0.99192520     1.49700
Zn794      Zn  0.53043040  0.97526380  0.98226199     1.49400
Zn795      Zn  0.01675852  0.95635060  0.91446276     1.49100
Zn796      Zn  0.97777843  0.53997328  0.91073101     1.49500
O797        O  0.02744201  0.01191981  0.95053140    -1.84300
O798        O  0.94165391  0.49879238  0.05957092    -0.74900
O799        O  0.56890660  0.92310777  0.95363742    -0.74700
O800        O  0.95848296  0.92308960  0.93793841    -0.74200
O801        O  0.55383151  0.49788206  0.06103332    -0.74900
O802        O  0.92458360  0.97387175  0.98542669    -0.74500
O803        O  0.51670186  0.89189955  0.90458641    -0.75100
O804        O  0.98706449  0.52405816  0.84196000    -0.74500
O805        O  0.62215217  0.55706321  0.99075257    -0.75200
O806        O  0.01033090  0.97039546  0.84484389    -0.74600
O807        O  0.59894886  0.59604163  0.92728222    -0.75100
O808        O  0.91902445  0.57840071  0.91377869    -0.75000
O809        O  0.87634898  0.54971403  0.97315038    -0.74800
C810        C  0.97907049  0.48245245  0.07872109     0.77000
C811        C  0.55796683  0.89267252  0.92296437     0.77500
C812        C  0.92496063  0.93443160  0.96596052     0.76400
C813        C  0.02822257  0.00223032  0.81971263     0.76800
C814        C  0.62633934  0.59102497  0.96285704     0.78000
C815        C  0.88224880  0.57880705  0.94002227     0.77000
C816        C  0.79321282  0.80001494  0.03887362     0.80100
N817        N  0.79497416  0.79584702  0.08687046    -0.78200
C818        C  0.77305210  0.76031965  0.10912927     0.82500
N819        N  0.74999197  0.72869348  0.08250429    -0.78200
C820        C  0.74778376  0.73249206  0.03474154     0.82600
N821        N  0.76975639  0.76800050  0.01275846    -0.79900
C822        C  0.54999762  0.96241880  0.35184365     0.80100
N823        N  0.54294187  0.95815820  0.30444326    -0.78200
C824        C  0.00792228  0.48269208  0.28408435     0.82500
N825        N  0.98604167  0.51585971  0.31003830    -0.78200
C826        C  0.99228074  0.51882918  0.35766096     0.82600
N827        N  0.52731486  0.99606956  0.37645452    -0.79900
Zn828      Zn  0.76733553  0.80126075  0.48419512     1.49700
Zn829      Zn  0.78739969  0.69476481  0.48873281     1.49400
Zn830      Zn  0.72416309  0.73544218  0.40506763     1.49100
Zn831      Zn  0.83465319  0.75378575  0.40796939     1.49500
O832        O  0.77811204  0.74638019  0.44651498    -1.84300
O833        O  0.75534927  0.78398466  0.55279912    -0.74900
O834        O  0.73047557  0.65380755  0.48481776    -0.74700
O835        O  0.68084313  0.79003933  0.40641127    -0.74200
O836        O  0.78872053  0.71537387  0.55719009    -0.74900
O837        O  0.71236205  0.83895519  0.45780574    -0.74500
O838        O  0.68579548  0.67983003  0.42603505    -0.75100
O839        O  0.81742161  0.76295859  0.33923925    -0.74500
O840        O  0.84494903  0.65641124  0.47013774    -0.75200
O841        O  0.74564048  0.73158031  0.33662634    -0.74600
O842        O  0.87352840  0.69638517  0.40986832    -0.75100
O843        O  0.87562062  0.80517100  0.43311374    -0.75000
O844        O  0.82731976  0.83927895  0.48499813    -0.74800
C845        C  0.76984398  0.75012577  0.57730176     0.77000
C846        C  0.69300613  0.65160836  0.45968246     0.77500
C847        C  0.68067974  0.82873067  0.42719895     0.76400
C848        C  0.78187528  0.74850727  0.31557785     0.76800
C849        C  0.87430925  0.66090277  0.43597410     0.78000
C850        C  0.86737774  0.83588945  0.46413963     0.77000
C851        C  0.00603244  0.95936461  0.54156485     0.80100
N852        N  0.03660646  0.98621145  0.51648843    -0.78200
C853        C  0.55878774  0.52463581  0.53956465     0.82500
N854        N  0.55937059  0.52541004  0.58763081    -0.78200
C855        C  0.03130367  0.99435084  0.61288634     0.82600
N856        N  0.00338595  0.96378735  0.58951056    -0.79900
C857        C  0.57575297  0.59164203  0.48866912    -0.20400
C858        C  0.59262581  0.55340505  0.51331487    -0.07000
C859        C  0.64194646  0.54485628  0.51514257     0.13900
C860        C  0.67341719  0.57614185  0.49444651    -0.20500
C861        C  0.65710704  0.61616971  0.47218429    -0.07000
C862        C  0.60736998  0.62348314  0.46834816     0.13900
C863        C  0.58725349  0.66589099  0.44568305    -0.23800
H864        H  0.53773643  0.59764544  0.48718536     0.15100
H865        H  0.71131767  0.56969596  0.49691864     0.15200
C866        C  0.66259652  0.50272189  0.53796398    -0.23800
H867        H  0.54789449  0.66693614  0.44840813     0.05400
H868        H  0.59690586  0.66674649  0.40754294     0.08600
H869        H  0.60123860  0.69690176  0.46374145     0.08600
H870        H  0.63091518  0.98296550  0.49885231     0.08600
H871        H  0.58506683  0.97647585  0.54219403     0.08600
H872        H  0.68683731  0.51291908  0.56715261     0.05400
C873        C  0.93717747  0.85090450  0.51409046    -0.20400
C874        C  0.90608872  0.86649882  0.47902693    -0.07000
C875        C  0.91116954  0.91112863  0.46093310     0.13900
C876        C  0.94581968  0.94035352  0.48045570    -0.20500
C877        C  0.97543168  0.92551950  0.51737775    -0.07000
C878        C  0.97233577  0.87957147  0.53301538     0.13900
C879        C  0.00596106  0.85923421  0.56879735    -0.23800
H880        H  0.93379332  0.81613155  0.52704409     0.15100
H881        H  0.94890726  0.97515452  0.46796039     0.15200
C882        C  0.87990807  0.92762267  0.42128933    -0.23800
H883        H  0.48500675  0.86395830  0.46788148     0.05400
H884        H  0.50203264  0.92196474  0.47907511     0.08600
H885        H  0.47757743  0.90689490  0.42249837     0.08600
H886        H  0.84213653  0.92734354  0.43282842     0.08600
H887        H  0.88413752  0.90474731  0.39008002     0.08600
H888        H  0.88928570  0.96281857  0.41010209     0.05400
C889        C  0.56800386  0.88420458  0.37894183    -0.20400
C890        C  0.58204080  0.93011829  0.37599820    -0.07000
C891        C  0.62751335  0.94313445  0.39250609     0.13900
C892        C  0.65780981  0.90963808  0.41149019    -0.20500
C893        C  0.64443675  0.86322646  0.41317958    -0.07000
C894        C  0.59825864  0.85060520  0.39760674     0.13900
C895        C  0.58009056  0.80206001  0.40092107    -0.23800
H896        H  0.53328434  0.87440361  0.36560823     0.15100
H897        H  0.69319785  0.91962584  0.42281011     0.15200
C898        C  0.64644229  0.99126504  0.38769819    -0.23800
H899        H  0.54190857  0.79962431  0.39117581     0.05400
H900        H  0.58380066  0.78943673  0.43780230     0.08600
H901        H  0.59998301  0.77943689  0.37629640     0.08600
H902        H  0.65671008  0.00477041  0.42294277     0.08600
H903        H  0.57240059  0.52119826  0.38243573     0.08600
H904        H  0.67848404  0.99094043  0.36464065     0.05400
C905        C  0.93181765  0.54367502  0.41597100    -0.20400
C906        C  0.96821897  0.55548835  0.38433011    -0.07000
C907        C  0.97738058  0.60203947  0.37479968     0.13900
C908        C  0.94781087  0.63552703  0.39467183    -0.20500
C909        C  0.90900861  0.62398843  0.42394647    -0.07000
C910        C  0.90185853  0.57722873  0.43584551     0.13900
C911        C  0.86139198  0.56182139  0.46703963    -0.23800
H912        H  0.92520384  0.50775379  0.42312422     0.15100
H913        H  0.95452910  0.67110000  0.38594778     0.15200
C914        C  0.01771545  0.61757033  0.34334885    -0.23800
H915        H  0.86026893  0.52405659  0.47034274     0.05400
H916        H  0.82692320  0.57260225  0.45159113     0.08600
H917        H  0.86556180  0.57647751  0.50312146     0.08600
H918        H  0.00318583  0.63592644  0.31217511     0.08600
H919        H  0.04017512  0.58896686  0.33046845     0.08600
H920        H  0.04122516  0.64118690  0.36335876     0.05400
C921        C  0.74549682  0.72829303  0.23799131    -0.20400
C922        C  0.78177988  0.75137352  0.26260637    -0.07000
C923        C  0.81541421  0.77714150  0.23604111     0.13900
C924        C  0.81146020  0.77897225  0.18639444    -0.20500
C925        C  0.77505613  0.75594390  0.16188154    -0.07000
C926        C  0.74147324  0.73016984  0.18847151     0.13900
C927        C  0.70022062  0.70530462  0.16583561    -0.23800
H928        H  0.71961308  0.70845822  0.25769250     0.15100
H929        H  0.83736979  0.79861942  0.16651662     0.15200
C930        C  0.85529804  0.80359806  0.25909217    -0.23800
H931        H  0.67616115  0.68974155  0.19260196     0.05400
H932        H  0.71345025  0.67696091  0.14313896     0.08600
H933        H  0.67870847  0.72958806  0.14458687     0.08600
H934        H  0.87944204  0.77977625  0.27793470     0.08600
H935        H  0.84051690  0.82921082  0.28422984     0.08600
H936        H  0.87711816  0.82249626  0.23272947     0.05400
C937        C  0.85250862  0.91393955  0.01249956    -0.20400
C938        C  0.88671953  0.90085537  0.97846546    -0.07000
C939        C  0.88473902  0.85553867  0.95993374     0.13900
C940        C  0.85162407  0.82437781  0.97865265    -0.20500
C941        C  0.82041228  0.83676900  0.01516986    -0.07000
C942        C  0.81923291  0.88273588  0.03067593     0.13900
C943        C  0.78301343  0.90032505  0.06570921    -0.23800
H944        H  0.85205473  0.94869455  0.02600032     0.15100
H945        H  0.85186473  0.78931936  0.96649759     0.15200
C946        C  0.91768785  0.83867852  0.92142942    -0.23800
H947        H  0.76361173  0.92964760  0.04990647     0.05400
H948        H  0.80127656  0.91215228  0.09835714     0.08600
H949        H  0.75601250  0.87434096  0.07547725     0.08600
H950        H  0.95497705  0.83873854  0.93423688     0.08600
H951        H  0.91427319  0.86069135  0.88959346     0.08600
H952        H  0.90920589  0.80303801  0.91045429     0.05400
C953        C  0.64681876  0.67287748  0.97133577    -0.20400
C954        C  0.66156682  0.62708283  0.97413627    -0.07000
C955        C  0.70738022  0.61701870  0.99204323     0.13900
C956        C  0.73636999  0.65296806  0.00815574    -0.20500
C957        C  0.72031269  0.69837630  0.00791999    -0.07000
C958        C  0.67502743  0.70853507  0.98913743     0.13900
C959        C  0.65353591  0.75573372  0.99087835    -0.23800
H960        H  0.61152113  0.68069735  0.95819688     0.15100
H961        H  0.77098397  0.64541346  0.02310597     0.12800
C962        C  0.72584835  0.56863387  0.99470424    -0.23800
H963        H  0.64172157  0.76551726  0.95497407     0.05400
H964        H  0.67836594  0.78234576  0.00392465     0.08600
H965        H  0.62192824  0.75539680  0.01450545     0.08600
H966        H  0.72368027  0.55212211  0.95932675     0.08600
H967        H  0.70481877  0.54853351  0.02064937     0.08600
H968        H  0.76356545  0.56766519  0.00629785     0.05400
C969        C  0.52591844  0.53914098  0.74026028    -0.20400
C970        C  0.02696989  0.99934086  0.76672860    -0.07000
C971        C  0.00908896  0.96092815  0.74130274     0.13900
C972        C  0.01078251  0.96085070  0.69149087    -0.20500
C973        C  0.02943786  0.99792050  0.66570287    -0.07000
C974        C  0.52490660  0.53985969  0.69058976     0.13900
C975        C  0.51542126  0.58453367  0.66566435    -0.23800
H976        H  0.52071084  0.57080516  0.75964554     0.15100
H977        H  0.99790594  0.93104307  0.67255173     0.15200
C978        C  0.98819825  0.91953295  0.76561799    -0.23800
H979        H  0.50862915  0.61281848  0.69115759     0.05400
H980        H  0.48361828  0.58102565  0.64266966     0.08600
H981        H  0.54659458  0.59440932  0.64381365     0.08600
H982        H  0.95671551  0.92973681  0.78695969     0.08600
H983        H  0.01533013  0.90330298  0.78860747     0.08600
H984        H  0.97611580  0.89318478  0.73986730     0.05400
C985        C  0.53572432  0.97929305  0.14835701    -0.20400
C986        C  0.98430859  0.48227417  0.13139815    -0.07000
C987        C  0.96146170  0.51437330  0.16146002     0.13900
C988        C  0.96981046  0.51297145  0.21054238    -0.20500
C989        C  0.00074885  0.48075591  0.23128159    -0.07000
C990        C  0.54490385  0.98106907  0.19722915     0.13900
C991        C  0.59576765  0.98263342  0.21399808    -0.23800
H992        H  0.56552974  0.97869319  0.12394605     0.15100
H993        H  0.95199304  0.53787331  0.23279936     0.15200
C994        C  0.92945087  0.55141289  0.14238070    -0.23800
H995        H  0.62128039  0.98326430  0.18390707     0.05400
H996        H  0.60379127  0.95187622  0.23552746     0.08600
H997        H  0.60169338  0.01394115  0.23560555     0.08600
H998        H  0.89744725  0.53591638  0.12589720     0.08600
H999        H  0.94902301  0.57228460  0.11587783     0.08600
H1000       H  0.91693253  0.57493527  0.17074541     0.05400
C1001       C  0.77132742  0.70847390  0.65431802    -0.20400
C1002       C  0.76398069  0.74997529  0.63010405    -0.07000
C1003       C  0.75087962  0.78923355  0.65694045     0.13900
C1004       C  0.74534015  0.78553635  0.70633903    -0.20500
C1005       C  0.75235270  0.74395057  0.73034300    -0.07000
C1006       C  0.76570922  0.70480636  0.70365514     0.13900
C1007       C  0.77266201  0.65845443  0.72611884    -0.23800
H1008       H  0.78103672  0.67812550  0.63442019     0.15100
H1009       H  0.73547451  0.81569554  0.72649198     0.15200
C1010       C  0.74288005  0.83544114  0.63453430    -0.23800
H1011       H  0.77985046  0.63142197  0.69931328     0.05400
H1012       H  0.74007547  0.64838656  0.74580354     0.08600
H1013       H  0.80362146  0.65930393  0.75040848     0.08600
H1014       H  0.71218269  0.83379566  0.60993315     0.08600
H1015       H  0.77537963  0.84641438  0.61522708     0.08600
H1016       H  0.73469982  0.86221772  0.66133765     0.05400
C1017       C  0.82246873  0.69209700  0.91546026    -0.20400
C1018       C  0.78420135  0.67763026  0.88745603    -0.07000
C1019       C  0.77425847  0.63034389  0.88314315     0.13900
C1020       C  0.80495267  0.59852940  0.90427433    -0.20500
C1021       C  0.84523234  0.61294822  0.92941756    -0.07000
C1022       C  0.85338845  0.66020850  0.93628160     0.13900
C1023       C  0.89545620  0.67689588  0.96441757    -0.23800
H1024       H  0.82978383  0.72827844  0.91852282     0.15100
H1025       H  0.79878138  0.56224674  0.89894908     0.15200
C1026       C  0.73228292  0.61236703  0.85563186    -0.23800
H1027       H  0.89634043  0.71483269  0.96683088     0.05400
H1028       H  0.92903849  0.66542228  0.94743246     0.08600
H1029       H  0.89353063  0.66295772  0.00094145     0.08600
H1030       H  0.70943735  0.63998427  0.84137080     0.08600
H1031       H  0.70980835  0.59087462  0.87912025     0.08600
H1032       H  0.74504596  0.59110071  0.82554850     0.05400
C1033       C  0.62147538  0.79442403  0.85848636    -0.20400
C1034       C  0.66882739  0.80289756  0.87079826    -0.07000
C1035       C  0.67963017  0.83917799  0.90208951     0.13900
C1036       C  0.64257569  0.86676557  0.91945626    -0.20500
C1037       C  0.59477281  0.85917876  0.90652486    -0.07000
C1038       C  0.58420106  0.82150045  0.87613872     0.13900
C1039       C  0.53413002  0.80865742  0.86211306    -0.23800
H1040       H  0.61361871  0.76597128  0.83497586     0.15100
H1041       H  0.65154499  0.89512761  0.94264065     0.15200
C1042       C  0.72972346  0.85035750  0.91719571    -0.23800
H1043       H  0.53310558  0.77663156  0.84081823     0.05400
H1044       H  0.51826916  0.83597880  0.84000369     0.08600
H1045       H  0.51214230  0.80288131  0.89427694     0.08600
H1046       H  0.75668318  0.82728475  0.90133860     0.08600
H1047       H  0.73240030  0.84774080  0.95631952     0.08600
H1048       H  0.73861773  0.88592346  0.90649446     0.05400
loop_ 
_geom_bond_atom_site_label_1 
_geom_bond_atom_site_label_2 
_geom_bond_distance 
_geom_bond_site_symmetry_2 
_ccdc_geom_bond_type 
C1            N2   1.360       .  A
C1            N6   1.360       .  A
C1          C232   1.479       .  S
N2            C3   1.358       .  A
C3            N4   1.359       .  A
C3          C219   1.494       .  S
N4            C5   1.361       .  A
C5            N6   1.362       .  A
C5          C248   1.478       .  S
Zn7          O12   2.036   1_556  S
Zn7          O23   2.044   1_565  S
Zn7         O278   2.007       .  S
Zn7         O273   1.943       .  S
Zn8          O13   2.038       .  S
Zn8         O277   2.022   1_556  S
Zn8         O281   2.019       .  S
Zn8         O535   1.948   1_455  S
Zn9          O14   2.018       .  S
Zn9          O20   2.018       .  S
Zn9         O541   2.003       .  S
Zn9          O11   1.941       .  S
Zn10         O18   2.025       .  S
Zn10         O22   1.998       .  S
Zn10        O545   2.023       .  S
Zn10        O273   1.932   1_545  S
O11        Zn269   1.939       .  S
O11        Zn532   1.948       .  S
O11        Zn272   1.941       .  S
O12          C24   1.277       .  A
O13          C25   1.277       .  A
O14          C26   1.273       .  A
O15        Zn270   2.042   1_554  S
O15         C548   1.280       .  A
O16        Zn269   2.009       .  S
O16          C26   1.274       .  A
O17        Zn533   2.026   1_455  S
O17          C25   1.274       .  A
O18         C289   1.277   1_545  A
O19        Zn270   2.002       .  S
O19          C28   1.271       .  A
O20          C27   1.274       .  A
O21        Zn534   2.025       .  S
O21          C28   1.275       .  A
O22          C29   1.271       .  A
O23          C29   1.276       .  A
C24         C200   1.495       .  S
C24         O539   1.277       .  A
C25         C251   1.501       .  S
C26         C152   1.495       .  S
C27         C184   1.485       .  S
C27         O280   1.276       .  A
C28         C168   1.476       .  S
C29         C235   1.471       .  S
C30          N31   1.361       .  A
C30          N35   1.358       .  A
C30         C155   1.475       .  S
N31          C32   1.360       .  A
C32          N33   1.357       .  A
C32         C139   1.491       .  S
N33          C34   1.356       .  A
C34          N35   1.356       .  A
C34         C171   1.467       .  S
C36          N37   1.359       .  A
C36          N41   1.358       .  A
C36         C104   1.472       .  S
N37         C824   1.359       .  A
C38          N39   1.358   1_565  A
C38         N823   1.357       .  A
C38         C203   1.483       .  S
N39          C40   1.360       .  A
C40         N827   1.360   1_545  A
C40         C120   1.478       .  S
N41         C826   1.357   1_455  A
Zn42         O47   2.032       .  S
Zn42         O51   2.037       .  S
Zn42         O58   2.019       .  S
Zn42         O46   1.943       .  S
Zn43         O48   2.004       .  S
Zn43         O50   2.038       .  S
Zn43         O54   2.052       .  S
Zn43         O46   1.941       .  S
Zn44         O49   2.012       .  S
Zn44         O52   2.043       .  S
Zn44         O55   2.033       .  S
Zn44         O46   1.948       .  S
Zn45         O53   2.020       .  S
Zn45         O56   2.007       .  S
Zn45         O57   2.022       .  S
Zn45         O46   1.936       .  S
O47          C59   1.276       .  A
O48          C60   1.274       .  A
O49          C61   1.273       .  A
O50          C59   1.280       .  A
O51          C61   1.277       .  A
O52          C60   1.276       .  A
O53          C62   1.274       .  A
O54          C63   1.278       .  A
O55          C62   1.279       .  A
O56          C63   1.274       .  A
O57          C64   1.274       .  A
O58          C64   1.274       .  A
C59         C216   1.498       .  S
C60          C75   1.498       .  S
C61         C107   1.486       .  S
C62         C136   1.500       .  S
C63         C123   1.499       .  S
C64          C88   1.475       .  S
C65          N66   1.359       .  A
C65          N70   1.359       .  A
C65          C91   1.469       .  S
N66         C853   1.358       .  A
C67          N68   1.356       .  A
C67         N852   1.359   1_545  A
C67          C72   1.474       .  S
N68         C855   1.354   1_545  A
C69          N70   1.357       .  A
C69         N854   1.356       .  A
C69         C187   1.477       .  S
C71          C72   1.401       .  A
C71          C76   1.410       .  A
C71          H78   1.086       .  S
C72          C73   1.411       .  A
C73          C74   1.398       .  A
C73          C80   1.509       .  S
C74          C75   1.409       .  A
C74          H79   1.085       .  S
C75          C76   1.424       .  A
C76          C77   1.507       .  S
C77          H81   1.111       .  S
C77          H82   1.110       .  S
C77          H83   1.110       .  S
C80          H86   1.111       .  S
C80         H346   1.107   1_545  S
C80         H347   1.107   1_545  S
H84         C342   1.108       .  S
H85         C342   1.108       .  S
C87          C88   1.403       .  A
C87          C92   1.402       .  A
C87          H94   1.085       .  S
C88          C89   1.413       .  A
C89          C90   1.404       .  A
C89          C96   1.505       .  S
C90          C91   1.401       .  A
C90          H95   1.085       .  S
C91          C92   1.413       .  A
C92          C93   1.509       .  S
C93         H621   1.110       .  S
C93         H622   1.108       .  S
C93         H623   1.108       .  S
C96         H100   1.109       .  S
C96         H101   1.110       .  S
C96         H102   1.108       .  S
H97         C617   1.111       .  S
H98         C617   1.105       .  S
H99         C617   1.110       .  S
C103        C104   1.400       .  A
C103        C108   1.405       .  A
C103        H110   1.085       .  S
C104        C105   1.413       .  A
C105        C106   1.404       .  A
C105        C112   1.509       .  S
C106        C107   1.406       .  A
C106        H111   1.086       .  S
C107        C108   1.419       .  A
C108        C109   1.509       .  S
C109        H113   1.111       .  S
C109        H114   1.110       .  S
C109        H115   1.109       .  S
C112        H116   1.109       .  S
C112        H118   1.110       .  S
C112        H379   1.108       .  S
H117        C374   1.109       .  S
C119        C120   1.401       .  A
C119        C124   1.409       .  A
C119        H126   1.085       .  S
C120        C121   1.412       .  A
C121        C122   1.403       .  A
C121        C128   1.509       .  S
C122        C123   1.410       .  A
C122        H127   1.084       .  S
C123        C124   1.422       .  A
C124        C125   1.506       .  S
C125        H129   1.107       .  S
C125        H130   1.110       .  S
C125        H131   1.110       .  S
C128        H132   1.110       .  S
C128        H133   1.108       .  S
C128        H134   1.110       .  S
C135        C136   1.408       .  A
C135        C140   1.405       .  A
C135        H142   1.083       .  S
C136        C137   1.423       .  A
C137        C138   1.407       .  A
C137        C144   1.509       .  S
C138        C139   1.404       .  A
C138        H143   1.084       .  S
C139        C140   1.417       .  A
C140        C141   1.509       .  S
C141        H145   1.111       .  S
C141        H146   1.109       .  S
C141        H147   1.111       .  S
C144        H148   1.110       .  S
C144        H149   1.110       .  S
C144        H150   1.111       .  S
C151        C152   1.411   1_554  A
C151        C156   1.401       .  A
C151        H158   1.084       .  S
C152        C153   1.422       .  A
C153        C154   1.404       .  A
C153        C160   1.509       .  S
C154        C155   1.399   1_556  A
C154        H159   1.079       .  S
C155        C156   1.410       .  A
C156        C157   1.508       .  S
C157        H161   1.111       .  S
C157        H162   1.110       .  S
C157        H163   1.108       .  S
C160        H164   1.110       .  S
C160        H165   1.110       .  S
C160        H166   1.111       .  S
C167        C168   1.403       .  A
C167        C172   1.400       .  A
C167        H174   1.085       .  S
C168        C169   1.416       .  A
C169        C170   1.404   1_556  A
C169        C176   1.508       .  S
C170        C171   1.401       .  A
C170        H175   1.085       .  S
C171        C172   1.412   1_554  A
C172        C173   1.507   1_556  S
C173        H177   1.107   1_554  S
C173        H178   1.108       .  S
C173        H179   1.110       .  S
C176        H180   1.110       .  S
C176        H181   1.109   1_556  S
C176        H182   1.111       .  S
C183        C188   1.404       .  A
C183        C970   1.407   1_545  A
C183        H190   1.083       .  S
C184        C185   1.419       .  A
C184        C969   1.405       .  A
C185        C186   1.406       .  A
C185        C192   1.508       .  S
C186        C187   1.402       .  A
C186        H191   1.083       .  S
C187        C974   1.413       .  A
C188        C973   1.420   1_545  A
C188        C189   1.510       .  S
C189        H193   1.111       .  S
C189        H194   1.111       .  S
C189        H195   1.110       .  S
C192        H196   1.109       .  S
C192        H197   1.111       .  S
C192        H198   1.111       .  S
C199        C204   1.407       .  A
C199        C986   1.405   1_455  A
C199        H206   1.084       .  S
C200        C201   1.420       .  A
C200        C985   1.409       .  A
C201        C202   1.408       .  A
C201        C208   1.508       .  S
C202        C203   1.403       .  A
C202        H207   1.085       .  S
C203        C990   1.413       .  A
C204        C989   1.424       .  A
C204        C205   1.509       .  S
C205        H209   1.111       .  S
C205        H210   1.110       .  S
C205        H211   1.110       .  S
C208        H212   1.111       .  S
C208        H213   1.109   1_565  S
C208        H214   1.111       .  S
C215        C216   1.407       .  A
C215        C220   1.406       .  A
C215        H222   1.084       .  S
C216        C217   1.421       .  A
C217        C218   1.409       .  A
C217        C224   1.508       .  S
C218        C219   1.406       .  A
C218        H223   1.084       .  S
C219        C220   1.417       .  A
C220        C221   1.507       .  S
C221        H225   1.111       .  S
C221        H226   1.110       .  S
C221        H227   1.109       .  S
C224        H228   1.110       .  S
C224        H229   1.110       .  S
C224        H230   1.111       .  S
C231        C232   1.406       .  A
C231        C236   1.409       .  A
C231        H238   1.084       .  S
C232        C233   1.415       .  A
C233        C234   1.401       .  A
C233        C240   1.507       .  S
C234        C235   1.398       .  A
C234        H239   1.086       .  S
C235        C236   1.409       .  A
C236        C237   1.505       .  S
C237        H241   1.106       .  S
C237        H242   1.110       .  S
C237        H243   1.110   1_556  S
C240        H244   1.108       .  S
C240        H245   1.110       .  S
C240        H246   1.110       .  S
C247        C248   1.400       .  A
C247        C252   1.405       .  A
C247        H254   1.085       .  S
C248        C249   1.413       .  A
C249        C250   1.407       .  A
C249        C256   1.508       .  S
C250        C251   1.412       .  A
C250        H255   1.084       .  S
C251        C252   1.424       .  A
C252        C253   1.509       .  S
C253        H257   1.110       .  S
C253        H258   1.109       .  S
C253        H259   1.111       .  S
C256        H260   1.108       .  S
C256        H261   1.110       .  S
C256        H262   1.110       .  S
C263        N264   1.358       .  A
C263        N268   1.360       .  A
C263        C494   1.481       .  S
N264        C265   1.357       .  A
C265        N266   1.361       .  A
C265        C481   1.496       .  S
N266        C267   1.360       .  A
C267        N268   1.359       .  A
C267        C510   1.476       .  S
Zn269       O274   2.012   1_556  S
Zn269       O285   2.036       .  S
Zn270       O275   2.044   1_545  S
Zn270       O797   1.947       .  S
Zn271       O276   2.039       .  S
Zn271       O803   2.011       .  S
Zn271       O282   2.024       .  S
Zn271       O273   1.942       .  S
Zn272       O280   2.021       .  S
Zn272       O807   2.026       .  S
Zn272       O284   2.012       .  S
O273       Zn794   1.945       .  S
O274        C286   1.274       .  A
O275        C287   1.276       .  A
O276        C288   1.276       .  A
O277        C810   1.277   1_455  A
O278        C288   1.274       .  A
O279       Zn795   2.015       .  S
O279        C287   1.273       .  A
O281        C290   1.273       .  A
O282        C289   1.275       .  A
O283       Zn796   2.005   1_455  S
O283        C290   1.272       .  A
O284        C291   1.271       .  A
O285        C291   1.277       .  A
C286        C462   1.502       .  S
C286        O801   1.280       .  A
C287        C513   1.480       .  S
C288        C414   1.489       .  S
C289        C446   1.495       .  S
C290        C430   1.474       .  S
C291        C497   1.500       .  S
C292        N293   1.358       .  A
C292        N297   1.360       .  A
C292        C417   1.474       .  S
N293        C294   1.357       .  A
C294        N295   1.356       .  A
C294        C401   1.486       .  S
N295        C296   1.357       .  A
C296        N297   1.361       .  A
C296        C433   1.471       .  S
C298        N299   1.355       .  A
C298        N303   1.360   1_465  A
C298        C366   1.470       .  S
N299        C562   1.354   1_565  A
C300        N561   1.357       .  A
C300        N301   1.361       .  A
C300        C465   1.493       .  S
N301        C302   1.360       .  A
C302        N565   1.360       .  A
C302        C382   1.478       .  S
N303        C564   1.363       .  A
Zn304       O309   2.015       .  S
Zn304       O313   2.008       .  S
Zn304       O320   1.972       .  S
Zn304       O308   1.928       .  S
Zn305       O310   2.016       .  S
Zn305       O312   2.052       .  S
Zn305       O316   2.037       .  S
Zn305       O308   1.942       .  S
Zn306       O311   2.024       .  S
Zn306       O314   2.024       .  S
Zn306       O317   2.026       .  S
Zn306       O308   1.945       .  S
Zn307       O315   2.022       .  S
Zn307       O318   2.019       .  S
Zn307       O319   2.041       .  S
Zn307       O308   1.953       .  S
O309        C321   1.273       .  A
O310        C322   1.276       .  A
O311        C323   1.273       .  A
O312        C321   1.280       .  A
O313        C323   1.273       .  A
O314        C322   1.275       .  A
O315        C324   1.275       .  A
O316        C325   1.276       .  A
O317        C324   1.277       .  A
O318        C325   1.275       .  A
O319        C326   1.276       .  A
O320        C326   1.267       .  A
C321        C478   1.502       .  S
C322        C337   1.483       .  S
C323        C369   1.479       .  S
C324        C398   1.498       .  S
C325        C385   1.491       .  S
C326        C350   1.488       .  S
C327        N328   1.356       .  A
C327        N332   1.359       .  A
C327        C353   1.469       .  S
N328        C591   1.355   1_565  A
C329        N590   1.358   1_455  A
C329        N330   1.359       .  A
C329        C334   1.468       .  S
N330        C593   1.358   1_455  A
C331        N592   1.357   1_565  A
C331        N332   1.357       .  A
C331        C449   1.485       .  S
C333        C334   1.400       .  A
C333        C338   1.405       .  A
C333        H340   1.085   1_455  S
C334        C335   1.411       .  A
C335        C336   1.401       .  A
C335        C342   1.509       .  S
C336        C337   1.406       .  A
C336        H341   1.085       .  S
C337        C338   1.419       .  A
C338        C339   1.509       .  S
C339        H343   1.111   1_455  S
C339        H344   1.108       .  S
C339        H345   1.110       .  S
C342        H348   1.110       .  S
C349        C350   1.407       .  A
C349        C354   1.405       .  A
C349        H356   1.086       .  S
C350        C351   1.423       .  A
C351        C352   1.397       .  A
C351        C358   1.509       .  S
C352        C353   1.395       .  A
C352        H357   1.087       .  S
C353        C354   1.413       .  A
C354        C355   1.506       .  S
C355        H883   1.111       .  S
C355        H884   1.106       .  S
C355        H885   1.109       .  S
C358        H362   1.109       .  S
C358        H363   1.111       .  S
C358        H364   1.110       .  S
H359        C879   1.110   1_655  S
H360        C879   1.107       .  S
H361        C879   1.111       .  S
C365        C366   1.403       .  A
C365        C370   1.407       .  A
C365        H372   1.084   1_455  S
C366        C367   1.412       .  A
C367        C368   1.400       .  A
C367        C374   1.508   1_565  S
C368        C369   1.404       .  A
C368        H373   1.086       .  S
C369        C370   1.414       .  A
C370        C371   1.507       .  S
C371        H375   1.111   1_455  S
C371        H376   1.110       .  S
C371        H377   1.109       .  S
C374        H378   1.108       .  S
C374        H380   1.110   1_545  S
C381        C382   1.401       .  A
C381        C386   1.408       .  A
C381        H388   1.084       .  S
C382        C383   1.413       .  A
C383        C384   1.404       .  A
C383        C390   1.508       .  S
C384        C385   1.407       .  A
C384        H389   1.085       .  S
C385        C386   1.420       .  A
C386        C387   1.508       .  S
C387        H391   1.110       .  S
C387        H392   1.111       .  S
C387        H393   1.110       .  S
C390        H394   1.110       .  S
C390        H395   1.108       .  S
C390        H396   1.109       .  S
C397        C398   1.409       .  A
C397        C402   1.405       .  A
C397        H404   1.083       .  S
C398        C399   1.423       .  A
C399        C400   1.405       .  A
C399        C406   1.509       .  S
C400        C401   1.403       .  A
C400        H405   1.084       .  S
C401        C402   1.415       .  A
C402        C403   1.509       .  S
C403        H407   1.111       .  S
C403        H408   1.109       .  S
C403        H409   1.111       .  S
C406        H410   1.110       .  S
C406        H411   1.110       .  S
C406        H412   1.111       .  S
C413        C414   1.407       .  A
C413        C418   1.400   1_556  A
C413        H420   1.085   1_556  S
C414        C415   1.419       .  A
C415        C416   1.408       .  A
C415        C422   1.507       .  S
C416        C417   1.401   1_556  A
C416        H421   1.083       .  S
C417        C418   1.412       .  A
C418        C419   1.509       .  S
C419        H423   1.109       .  S
C419        H424   1.110       .  S
C419        H425   1.108       .  S
C422        H426   1.110       .  S
C422        H427   1.110       .  S
C422        H428   1.109       .  S
C429        C430   1.403       .  A
C429        C434   1.400   1_556  A
C429        H436   1.085       .  S
C430        C431   1.412       .  A
C431        C432   1.405       .  A
C431        C438   1.507       .  S
C432        C433   1.402   1_556  A
C432        H437   1.081       .  S
C433        C434   1.413       .  A
C434        C435   1.508       .  S
C435        H439   1.110       .  S
C435        H440   1.108       .  S
C435        H441   1.110       .  S
C438        H442   1.110       .  S
C438        H443   1.109       .  S
C438        H444   1.111       .  S
C445        C708   1.403   1_455  A
C445        C450   1.406       .  A
C445        H452   1.084       .  S
C446        C707   1.408   1_565  A
C446        C447   1.422       .  A
C447        C448   1.406       .  A
C447        C454   1.509       .  S
C448        C449   1.403       .  A
C448        H453   1.084       .  S
C449        C712   1.415   1_565  A
C450        C711   1.419   1_455  A
C450        C451   1.508       .  S
C451        H455   1.111       .  S
C451        H456   1.109       .  S
C451        H457   1.111       .  S
C454        H458   1.110       .  S
C454        H459   1.110       .  S
C454        H460   1.111       .  S
C461        C724   1.406   1_565  A
C461        C466   1.407       .  A
C461        H468   1.084       .  S
C462        C723   1.409       .  A
C462        C463   1.425       .  A
C463        C464   1.405       .  A
C463        C470   1.510       .  S
C464        C465   1.402       .  A
C464        H469   1.084       .  S
C465        C728   1.419       .  A
C466        C727   1.423   1_565  A
C466        C467   1.510       .  S
C467        H471   1.111       .  S
C467        H472   1.109       .  S
C467        H473   1.111       .  S
C470        H474   1.110       .  S
C470        H475   1.110       .  S
C470        H476   1.111       .  S
C477        C478   1.407       .  A
C477        C482   1.408       .  A
C477        H484   1.083       .  S
C478        C479   1.425       .  A
C479        C480   1.408       .  A
C479        C486   1.509       .  S
C480        C481   1.404       .  A
C480        H485   1.084       .  S
C481        C482   1.420       .  A
C482        C483   1.509       .  S
C483        H487   1.111       .  S
C483        H488   1.110       .  S
C483        H489   1.109       .  S
C486        H490   1.110       .  S
C486        H491   1.110       .  S
C486        H492   1.111       .  S
C493        C494   1.401       .  A
C493        C498   1.405       .  A
C493        H500   1.084       .  S
C494        C495   1.413       .  A
C495        C496   1.405       .  A
C495        C502   1.506       .  S
C496        C497   1.409       .  A
C496        H501   1.084       .  S
C497        C498   1.425       .  A
C498        C499   1.510       .  S
C499        H503   1.111       .  S
C499        H504   1.110       .  S
C499        H505   1.110       .  S
C502        H506   1.105       .  S
C502        H507   1.110       .  S
C502        H508   1.110       .  S
C509        C510   1.402       .  A
C509        C514   1.407       .  A
C509        H516   1.085       .  S
C510        C511   1.414       .  A
C511        C512   1.405       .  A
C511        C518   1.507       .  S
C512        C513   1.404       .  A
C512        H517   1.085       .  S
C513        C514   1.412       .  A
C514        C515   1.504       .  S
C515        H519   1.109       .  S
C515        H520   1.109       .  S
C515        H521   1.110       .  S
C518        H522   1.109       .  S
C518        H523   1.110       .  S
C518        H524   1.110       .  S
C525        N526   1.359       .  A
C525        N530   1.357       .  A
C525        C756   1.475       .  S
N526        C527   1.359       .  A
C527        N528   1.361       .  A
C527        C743   1.501       .  S
N528        C529   1.359       .  A
C529        N530   1.355       .  A
C529        C772   1.469       .  S
Zn531       O536   2.022   1_556  S
Zn531       O802   2.021   1_545  S
Zn531       O547   2.037       .  S
Zn531       O797   1.947   1_655  S
Zn532       O537   2.039       .  S
Zn532       O801   2.049   1_556  S
Zn532       O805   2.009       .  S
Zn533       O538   2.046       .  S
Zn533       O544   2.036       .  S
Zn533       O535   1.944       .  S
Zn534       O542   2.022       .  S
Zn534       O546   2.003   1_455  S
Zn534       O797   1.943       .  S
O535       Zn793   1.944       .  S
O535       Zn796   1.932       .  S
O536        C548   1.275   1_655  A
O537        C549   1.276       .  A
O538        C550   1.277       .  A
O539       Zn794   2.022   1_554  S
O540       Zn793   2.002       .  S
O540        C550   1.274       .  A
O541        C549   1.272       .  A
O542        C813   1.277       .  A
O543       Zn794   2.020   1_545  S
O543        C552   1.273       .  A
O544        C551   1.277       .  A
O545        C552   1.274       .  A
O546        C553   1.270       .  A
O547        C553   1.277       .  A
C548        C724   1.502       .  S
C549        C775   1.474       .  S
C550        C676   1.489       .  S
C551        C708   1.479       .  S
C551        O804   1.275       .  A
C552        C692   1.478       .  S
C553        C759   1.498       .  S
C554        N555   1.358       .  A
C554        N559   1.359       .  A
C554        C679   1.474       .  S
N555        C556   1.357       .  A
C556        N557   1.358       .  A
C556        C663   1.487       .  S
N557        C558   1.359       .  A
C558        N559   1.360       .  A
C558        C695   1.474       .  S
C560        N561   1.357       .  A
C560        N565   1.359       .  A
C560        C628   1.472       .  S
C562        N563   1.361   1_455  A
C562        C727   1.502       .  S
N563        C564   1.362       .  A
C564        C644   1.492       .  S
Zn566       O571   2.021       .  S
Zn566       O575   2.030       .  S
Zn566       O582   1.987       .  S
Zn566       O570   1.934       .  S
Zn567       O572   2.016       .  S
Zn567       O574   2.039       .  S
Zn567       O578   2.047       .  S
Zn567       O570   1.946       .  S
Zn568       O573   2.014       .  S
Zn568       O576   2.011       .  S
Zn568       O579   2.016       .  S
Zn568       O570   1.939       .  S
Zn569       O577   2.033       .  S
Zn569       O580   2.011       .  S
Zn569       O581   2.040       .  S
Zn569       O570   1.946       .  S
O571        C583   1.274       .  A
O572        C584   1.276       .  A
O573        C585   1.272       .  A
O574        C583   1.279       .  A
O575        C585   1.275       .  A
O576        C584   1.274       .  A
O577        C586   1.276       .  A
O578        C587   1.276       .  A
O579        C586   1.276       .  A
O580        C587   1.275       .  A
O581        C588   1.277       .  A
O582        C588   1.269       .  A
C583        C740   1.502       .  S
C584        C599   1.481       .  S
C585        C631   1.484       .  S
C586        C660   1.496       .  S
C587        C647   1.502       .  S
C588        C612   1.493       .  S
C589        N590   1.358       .  A
C589        N594   1.357       .  A
C589        C615   1.474       .  S
C591        N592   1.358       .  A
C591        C596   1.463       .  S
C593        N594   1.356       .  A
C593        C711   1.489       .  S
C595        C596   1.399       .  A
C595        C600   1.403       .  A
C595        H602   1.085       .  S
C596        C597   1.410       .  A
C597        C598   1.400       .  A
C597        C604   1.509       .  S
C598        C599   1.406       .  A
C598        H603   1.086       .  S
C599        C600   1.419       .  A
C600        C601   1.509       .  S
C601        H605   1.111       .  S
C601        H606   1.108       .  S
C601        H607   1.110       .  S
C604        H870   1.108   1_545  S
C604        H871   1.108   1_545  S
C604        H610   1.110       .  S
H608        C866   1.108       .  S
H609        C866   1.108       .  S
C611        C612   1.408       .  A
C611        C616   1.406       .  A
C611        H618   1.086       .  S
C612        C613   1.423       .  A
C613        C614   1.399       .  A
C613        C620   1.509       .  S
C614        C615   1.398       .  A
C614        H619   1.087       .  S
C615        C616   1.414       .  A
C616        C617   1.507       .  S
C620        H624   1.109       .  S
C620        H625   1.109       .  S
C620        H626   1.111       .  S
C627        C628   1.402       .  A
C627        C632   1.408       .  A
C627        H634   1.085       .  S
C628        C629   1.411       .  A
C629        C630   1.401       .  A
C629        C636   1.507       .  S
C630        C631   1.404       .  A
C630        H635   1.086       .  S
C631        C632   1.419       .  A
C632        C633   1.509       .  S
C633        H637   1.111       .  S
C633        H638   1.109       .  S
C633        H639   1.109       .  S
C636        H640   1.104       .  S
C636        H903   1.108       .  S
C636        H642   1.110       .  S
H641        C898   1.108   1_545  S
C643        C644   1.406       .  A
C643        C648   1.411       .  A
C643        H650   1.075       .  S
C644        C645   1.415       .  A
C645        C646   1.403       .  A
C645        C652   1.509       .  S
C646        C647   1.410       .  A
C646        H651   1.082       .  S
C647        C648   1.422       .  A
C648        C649   1.508       .  S
C649        H653   1.111       .  S
C649        H654   1.110       .  S
C649        H655   1.110       .  S
C652        H656   1.109       .  S
C652        H657   1.111   1_655  S
C652        H658   1.111       .  S
C659        C660   1.409       .  A
C659        C664   1.405       .  A
C659        H666   1.084       .  S
C660        C661   1.420       .  A
C661        C662   1.406       .  A
C661        C668   1.509       .  S
C662        C663   1.405       .  A
C662        H667   1.084       .  S
C663        C664   1.415       .  A
C664        C665   1.509       .  S
C665        H669   1.111       .  S
C665        H670   1.109       .  S
C665        H671   1.110       .  S
C668        H672   1.111       .  S
C668        H673   1.110       .  S
C668        H674   1.111       .  S
C675        C676   1.407       .  A
C675        C680   1.400   1_556  A
C675        H682   1.083   1_556  S
C676        C677   1.418       .  A
C677        C678   1.408       .  A
C677        C684   1.507       .  S
C678        C679   1.402   1_556  A
C678        H683   1.081       .  S
C679        C680   1.411       .  A
C680        C681   1.508       .  S
C681        H685   1.108       .  S
C681        H686   1.110       .  S
C681        H687   1.109       .  S
C684        H688   1.110       .  S
C684        H689   1.110       .  S
C684        H690   1.110       .  S
C691        C692   1.404       .  A
C691        C696   1.403   1_556  A
C691        H698   1.085   1_556  S
C692        C693   1.412       .  A
C693        C694   1.405       .  A
C693        C700   1.506       .  S
C694        C695   1.402   1_556  A
C694        H699   1.082       .  S
C695        C696   1.414       .  A
C696        C697   1.508       .  S
C697        H701   1.110       .  S
C697        H702   1.108       .  S
C697        H703   1.111       .  S
C700        H704   1.110       .  S
C700        H705   1.110       .  S
C700        H706   1.111       .  S
C707        C712   1.405       .  A
C707        H714   1.083       .  S
C708        C709   1.411       .  A
C709        C710   1.404       .  A
C709        C716   1.508       .  S
C710        C711   1.408       .  A
C710        H715   1.083       .  S
C712        C713   1.508       .  S
C713        H717   1.111       .  S
C713        H718   1.111       .  S
C713        H719   1.109       .  S
C716        H720   1.111       .  S
C716        H721   1.109       .  S
C716        H722   1.111       .  S
C723        C728   1.408       .  A
C723        H730   1.084       .  S
C724        C725   1.423   1_455  A
C725        C726   1.407       .  A
C725        C732   1.509       .  S
C726        C727   1.407   1_655  A
C726        H731   1.084       .  S
C728        C729   1.509       .  S
C729        H733   1.111       .  S
C729        H734   1.109       .  S
C729        H735   1.111       .  S
C732        H736   1.110       .  S
C732        H737   1.110       .  S
C732        H738   1.111       .  S
C739        C740   1.408       .  A
C739        C744   1.407       .  A
C739        H746   1.083       .  S
C740        C741   1.423       .  A
C741        C742   1.407       .  A
C741        C748   1.510       .  S
C742        C743   1.407       .  A
C742        H747   1.084       .  S
C743        C744   1.421       .  A
C744        C745   1.509       .  S
C745        H749   1.111       .  S
C745        H750   1.110       .  S
C745        H751   1.110       .  S
C748        H752   1.110       .  S
C748        H753   1.110       .  S
C748        H754   1.111       .  S
C755        C756   1.399       .  A
C755        C760   1.405       .  A
C755        H762   1.085       .  S
C756        C757   1.413       .  A
C757        C758   1.403       .  A
C757        C764   1.507       .  S
C758        C759   1.408       .  A
C758        H763   1.084       .  S
C759        C760   1.426       .  A
C760        C761   1.509       .  S
C761        H765   1.110       .  S
C761        H766   1.110       .  S
C761        H767   1.111   1_655  S
C764        H768   1.106       .  S
C764        H769   1.110       .  S
C764        H770   1.110       .  S
C771        C772   1.401       .  A
C771        C776   1.404       .  A
C771        H778   1.084       .  S
C772        C773   1.412       .  A
C773        C774   1.403       .  A
C773        C780   1.507       .  S
C774        C775   1.403       .  A
C774        H779   1.084       .  S
C775        C776   1.412       .  A
C776        C777   1.505       .  S
C777        H781   1.110       .  S
C777        H782   1.110       .  S
C777        H783   1.110       .  S
C780        H784   1.109       .  S
C780        H785   1.110       .  S
C780        H786   1.110       .  S
C787        N788   1.358       .  A
C787        N792   1.358       .  A
C787       C1018   1.472       .  S
N788        C789   1.358       .  A
C789        N790   1.359       .  A
C789       C1005   1.494       .  S
N790        C791   1.359       .  A
C791        N792   1.359       .  A
C791       C1034   1.472       .  S
Zn793       O798   2.034   1_556  S
Zn793       O809   2.046       .  S
Zn794       O799   2.034       .  S
Zn795       O800   2.016   1_455  S
Zn795       O806   2.017       .  S
Zn795       O797   1.937   1_565  S
Zn796       O804   2.012       .  S
Zn796       O808   2.000       .  S
O798        C810   1.277       .  A
O799        C811   1.277       .  A
O800        C812   1.273       .  A
O802        C812   1.275       .  A
O803        C811   1.272       .  A
O805        C814   1.273       .  A
O806        C813   1.273   1_565  A
O807        C814   1.276       .  A
O808        C815   1.271       .  A
O809        C815   1.275       .  A
C810        C986   1.495       .  S
C811       C1037   1.497       .  S
C812        C938   1.497       .  S
C813        C970   1.498   1_545  S
C814        C954   1.480       .  S
C815       C1021   1.474       .  S
C816        N817   1.362       .  A
C816        N821   1.360       .  A
C816        C941   1.478       .  S
N817        C818   1.361       .  A
C818        N819   1.355       .  A
C818        C925   1.496       .  S
N819        C820   1.355       .  A
C820        N821   1.357       .  A
C820        C957   1.470       .  S
C822        N823   1.358       .  A
C822        N827   1.361       .  A
C822        C890   1.475       .  S
C824        N825   1.360   1_455  A
C824        C989   1.505       .  S
N825        C826   1.359       .  A
C826        C906   1.472       .  S
Zn828       O833   2.030       .  S
Zn828       O837   2.042       .  S
Zn828       O844   2.018       .  S
Zn828       O832   1.945       .  S
Zn829       O834   2.000       .  S
Zn829       O836   2.023       .  S
Zn829       O840   2.036       .  S
Zn829       O832   1.942       .  S
Zn830       O835   2.008       .  S
Zn830       O838   2.037       .  S
Zn830       O841   2.026       .  S
Zn830       O832   1.943       .  S
Zn831       O839   2.019       .  S
Zn831       O842   2.003       .  S
Zn831       O843   2.019       .  S
Zn831       O832   1.937       .  S
O833        C845   1.276       .  A
O834        C846   1.273       .  A
O835        C847   1.272       .  A
O836        C845   1.277       .  A
O837        C847   1.277       .  A
O838        C846   1.276       .  A
O839        C848   1.274       .  A
O840        C849   1.275       .  A
O841        C848   1.278       .  A
O842        C849   1.273       .  A
O843        C850   1.273       .  A
O844        C850   1.274       .  A
C845       C1002   1.499       .  S
C846        C861   1.487       .  S
C847        C893   1.489       .  S
C848        C922   1.498       .  S
C849        C909   1.493       .  S
C850        C874   1.469       .  S
C851        N852   1.361       .  A
C851        N856   1.361       .  A
C851        C877   1.477   1_455  S
C853        N854   1.357       .  A
C853        C858   1.469       .  S
C855        N856   1.359       .  A
C855        C973   1.495       .  S
C857        C858   1.401       .  A
C857        C862   1.408       .  A
C857        H864   1.084       .  S
C858        C859   1.411       .  A
C859        C860   1.399       .  A
C859        C866   1.508       .  S
C860        C861   1.406       .  A
C860        H865   1.085       .  S
C861        C862   1.420       .  A
C862        C863   1.507       .  S
C863        H867   1.110       .  S
C863        H868   1.110       .  S
C863        H869   1.110       .  S
C866        H872   1.110       .  S
C873        C874   1.399       .  A
C873        C878   1.401       .  A
C873        H880   1.084       .  S
C874        C875   1.408       .  A
C875        C876   1.407       .  A
C875        C882   1.505       .  S
C876        C877   1.405       .  A
C876        H881   1.080       .  S
C877        C878   1.416       .  A
C878        C879   1.508   1_655  S
C882        H886   1.110       .  S
C882        H887   1.111       .  S
C882        H888   1.107       .  S
C889        C890   1.400       .  A
C889        C894   1.404       .  A
C889        H896   1.085       .  S
C890        C891   1.413       .  A
C891        C892   1.406       .  A
C891        C898   1.509       .  S
C892        C893   1.407       .  A
C892        H897   1.085       .  S
C893        C894   1.420       .  A
C894        C895   1.509       .  S
C895        H899   1.111       .  S
C895        H900   1.110       .  S
C895        H901   1.109       .  S
C898        H902   1.108   1_565  S
C898        H904   1.110       .  S
C905        C906   1.400       .  A
C905        C910   1.408       .  A
C905        H912   1.085       .  S
C906        C907   1.410       .  A
C907        C908   1.400       .  A
C907        C914   1.509   1_655  S
C908        C909   1.408       .  A
C908        H913   1.084       .  S
C909        C910   1.421       .  A
C910        C911   1.506       .  S
C911        H915   1.107       .  S
C911        H916   1.110       .  S
C911        H917   1.110       .  S
C914        H918   1.110       .  S
C914        H919   1.108       .  S
C914        H920   1.109       .  S
C921        C922   1.406       .  A
C921        C926   1.404       .  A
C921        H928   1.083       .  S
C922        C923   1.422       .  A
C923        C924   1.407       .  A
C923        C930   1.509       .  S
C924        C925   1.407       .  A
C924        H929   1.083       .  S
C925        C926   1.421       .  A
C926        C927   1.510       .  S
C927        H931   1.111       .  S
C927        H932   1.110       .  S
C927        H933   1.110       .  S
C930        H934   1.110       .  S
C930        H935   1.110       .  S
C930        H936   1.111       .  S
C937        C938   1.411   1_554  A
C937        C942   1.403       .  A
C937        H944   1.083       .  S
C938        C939   1.423       .  A
C939        C940   1.404       .  A
C939        C946   1.509       .  S
C940        C941   1.400   1_556  A
C940        H945   1.079       .  S
C941        C942   1.411       .  A
C942        C943   1.508       .  S
C943        H947   1.111       .  S
C943        H948   1.110       .  S
C943        H949   1.108       .  S
C946        H950   1.110       .  S
C946        H951   1.110       .  S
C946        H952   1.111       .  S
C953        C954   1.403       .  A
C953        C958   1.401       .  A
C953        H960   1.085       .  S
C954        C955   1.416       .  A
C955        C956   1.404   1_556  A
C955        C962   1.508       .  S
C956        C957   1.401       .  A
C956        H961   1.085       .  S
C957        C958   1.413   1_554  A
C958        C959   1.506       .  S
C959        H963   1.105       .  S
C959        H964   1.107   1_556  S
C959        H965   1.110   1_556  S
C962        H966   1.110       .  S
C962        H967   1.109   1_556  S
C962        H968   1.111   1_556  S
C969        C974   1.403       .  A
C969        H976   1.083       .  S
C970        C971   1.422       .  A
C971        C972   1.407       .  A
C971        C978   1.509   1_455  S
C972        C973   1.406       .  A
C972        H977   1.083   1_455  S
C974        C975   1.508       .  S
C975        H979   1.111       .  S
C975        H980   1.111       .  S
C975        H981   1.109       .  S
C978        H982   1.110       .  S
C978        H983   1.110   1_655  S
C978        H984   1.111       .  S
C985        C990   1.405       .  A
C985        H992   1.084       .  S
C986        C987   1.417       .  A
C987        C988   1.406       .  A
C987        C994   1.509       .  S
C988        C989   1.411   1_655  A
C988        H993   1.083       .  S
C990        C991   1.508       .  S
C991        H995   1.111       .  S
C991        H996   1.109       .  S
C991        H997   1.111   1_565  S
C994        H998   1.110       .  S
C994        H999   1.111       .  S
C994       H1000   1.111       .  S
C1001      C1002   1.408       .  A
C1001      C1006   1.406       .  A
C1001      H1008   1.083       .  S
C1002      C1003   1.421       .  A
C1003      C1004   1.407       .  A
C1003      C1010   1.509       .  S
C1004      C1005   1.406       .  A
C1004      H1009   1.084       .  S
C1005      C1006   1.418       .  A
C1006      C1007   1.509       .  S
C1007      H1011   1.111       .  S
C1007      H1012   1.110       .  S
C1007      H1013   1.110       .  S
C1010      H1014   1.110       .  S
C1010      H1015   1.110       .  S
C1010      H1016   1.111       .  S
C1017      C1018   1.401       .  A
C1017      C1022   1.405       .  A
C1017      H1024   1.080       .  S
C1018      C1019   1.414       .  A
C1019      C1020   1.404       .  A
C1019      C1026   1.508       .  S
C1020      C1021   1.402       .  A
C1020      H1025   1.084       .  S
C1021      C1022   1.412       .  A
C1022      C1023   1.506       .  S
C1023      H1027   1.110       .  S
C1023      H1028   1.110       .  S
C1023      H1029   1.110   1_556  S
C1026      H1030   1.109       .  S
C1026      H1031   1.110       .  S
C1026      H1032   1.110       .  S
C1033      C1034   1.399       .  A
C1033      C1038   1.404       .  A
C1033      H1040   1.085       .  S
C1034      C1035   1.411       .  A
C1035      C1036   1.405       .  A
C1035      C1042   1.508       .  S
C1036      C1037   1.411       .  A
C1036      H1041   1.084       .  S
C1037      C1038   1.425       .  A
C1038      C1039   1.510       .  S
C1039      H1043   1.111       .  S
C1039      H1044   1.109       .  S
C1039      H1045   1.110       .  S
C1042      H1046   1.108       .  S
C1042      H1047   1.110       .  S
C1042      H1048   1.110       .  S
