geometry optimzed in LAMMPS
_audit_creation_date              2020-12-01 
_audit_creation_method            'lammps2cif' 
_symmetry_space_group_name_H-M    'P1' 
_symmetry_Int_Tables_number       1 
_symmetry_cell_setting            triclinic 
loop_ 
_symmetry_equiv_pos_as_xyz 
  x,y,z 
_cell_length_a                    49.8321255 
_cell_length_b                    49.809596187726484 
_cell_length_c                    49.801902492020105 
_cell_angle_alpha                 90.05884778871224 
_cell_angle_beta                  89.99146415231677 
_cell_angle_gamma                 90.22015414125791 
loop_ 
_atom_site_label 
_atom_site_type_symbol 
_atom_site_fract_x 
_atom_site_fract_y 
_atom_site_fract_z 
_atom_site_charge 
Zn1        Zn  0.00372494  0.61346814  0.78966263     1.49700
Zn2        Zn  0.03160759  0.66520684  0.81626428     1.49400
Zn3        Zn  0.97061484  0.66488767  0.81173873     1.49100
Zn4        Zn  0.99922229  0.62090435  0.85008737     1.49500
O5          O  0.00108013  0.64083110  0.81687626    -1.84700
O6          O  0.03943393  0.61739268  0.77226299    -0.75300
O7          O  0.02481637  0.69878226  0.79231739    -0.75100
O8          O  0.94547920  0.64572709  0.78744696    -0.74600
O9          O  0.06183389  0.64462808  0.80018023    -0.75300
O10         O  0.97246674  0.61796035  0.76474686    -0.74900
O11         O  0.98041229  0.70036814  0.79160892    -0.75500
O12         O  0.96586316  0.63276647  0.86815597    -0.74900
O13         O  0.04333572  0.67296395  0.85464656    -0.75700
O14         O  0.95044713  0.66915589  0.84713080    -0.75000
O15         O  0.02841321  0.63532570  0.87403936    -0.75500
O16         O  0.99954424  0.57849841  0.84734603    -0.75400
O17         O  0.00295783  0.57385341  0.80341228    -0.75200
C18         C  0.06120387  0.62695124  0.78178990     0.76600
C19         C  0.00314229  0.70989723  0.78421073     0.77100
C20         C  0.94970956  0.62897521  0.76866789     0.76000
C21         C  0.94975415  0.65253921  0.86669616     0.76400
C22         C  0.04242551  0.65687872  0.87465443     0.77500
C23         C  0.00121938  0.56321233  0.82670162     0.76600
Zn24       Zn  0.02353474  0.38884734  0.82565944     1.49700
Zn25       Zn  0.96706472  0.39040108  0.83694712     1.49400
Zn26       Zn  0.98773114  0.36038147  0.78261471     1.49100
Zn27       Zn  0.99716045  0.33152329  0.83665752     1.49500
O28         O  0.99294131  0.36695668  0.82001569    -1.84700
O29         O  0.01794442  0.43024413  0.82477704    -0.75300
O30         O  0.93574862  0.39112341  0.81246703    -0.75100
O31         O  0.02024134  0.37486081  0.76297428    -0.74600
O32         O  0.97738098  0.43153603  0.84207221    -0.75300
O33         O  0.04854567  0.38029778  0.79715280    -0.74900
O34         O  0.95279026  0.37732954  0.77327277    -0.75500
O35         O  0.99758864  0.29916048  0.80871501    -0.74900
O36         O  0.95611601  0.37157380  0.87068936    -0.75700
O37         O  0.98534082  0.32102771  0.77203399    -0.75000
O38         O  0.96722935  0.32830898  0.86468965    -0.75500
O39         O  0.03120574  0.33267222  0.85925835    -0.75400
O40         O  0.03999472  0.37673512  0.85945466    -0.75200
C41         C  0.99821447  0.44398458  0.83349627     0.76600
C42         C  0.93376857  0.38727262  0.78727081     0.77100
C43         C  0.04384635  0.37907971  0.77217056     0.76000
C44         C  0.99123728  0.29911095  0.78371856     0.76400
C45         C  0.95541876  0.34693453  0.87788308     0.77500
C46         C  0.04338079  0.35318962  0.86881868     0.76600
Zn47       Zn  0.10745607  0.47488488  0.66103854     1.49700
Zn48       Zn  0.13694860  0.49643701  0.71454651     1.49400
Zn49       Zn  0.16548396  0.50326081  0.65894402     1.49100
Zn50       Zn  0.10830589  0.53306809  0.67024298     1.49500
O51         O  0.13015586  0.50203084  0.67666335    -1.84700
O52         O  0.10783729  0.44405071  0.68524445    -0.75300
O53         O  0.17634249  0.49226812  0.72343388    -0.75100
O54         O  0.16730512  0.47215313  0.63234052    -0.74600
O55         O  0.11912340  0.46173148  0.72490940    -0.75300
O56         O  0.12371368  0.46280940  0.62692008    -0.74900
O57         O  0.19795792  0.50202342  0.68574803    -0.75500
O58         O  0.12542573  0.55373038  0.64093905    -0.74900
O59         O  0.12492652  0.52937986  0.73551497    -0.75700
O60         O  0.16683704  0.53713786  0.63638077    -0.75000
O61         O  0.11206426  0.55575094  0.70187437    -0.75500
O62         O  0.06711592  0.52698246  0.66441638    -0.75400
O63         O  0.06709451  0.48350474  0.65670166    -0.75200
C64         C  0.11023766  0.44236879  0.71054241     0.76600
C65         C  0.19818895  0.49617442  0.71078184     0.77100
C66         C  0.14815837  0.46040053  0.61989549     0.76000
C67         C  0.14883793  0.55438091  0.63061804     0.76400
C68         C  0.11757384  0.55219065  0.72647539     0.77500
C69         C  0.05414242  0.50536360  0.65942590     0.76600
Zn70       Zn  0.88224615  0.47374158  0.66627297     1.49700
Zn71       Zn  0.85499321  0.50947750  0.71232811     1.49400
Zn72       Zn  0.88117334  0.53280908  0.65962315     1.49100
Zn73       Zn  0.82402979  0.50073642  0.65804781     1.49500
O74         O  0.85992962  0.50415955  0.67429215    -1.84700
O75         O  0.87992972  0.45016272  0.69748455    -0.75300
O76         O  0.87368924  0.54341788  0.72368567    -0.75100
O77         O  0.92196395  0.52533864  0.65543621    -0.74600
O78         O  0.86769914  0.47642356  0.73150448    -0.75300
O79         O  0.92291497  0.48140421  0.66027781    -0.74900
O80         O  0.88023376  0.56370147  0.68437131    -0.75500
O81         O  0.82036691  0.53130506  0.63112332    -0.74900
O82         O  0.81632360  0.51317419  0.72318830    -0.75700
O83         O  0.86334242  0.54389441  0.62593677    -0.75000
O84         O  0.79311317  0.50122440  0.68703942    -0.75500
O85         O  0.82287526  0.46631645  0.63524143    -0.75400
O86         O  0.86556354  0.45276399  0.63675992    -0.75200
C87         C  0.87521374  0.45377394  0.72226341     0.76600
C88         C  0.88067184  0.56383832  0.70986494     0.77100
C89         C  0.93538319  0.50361774  0.65699296     0.76000
C90         C  0.83880535  0.54414478  0.61866455     0.76400
C91         C  0.79403821  0.50781092  0.71194141     0.77500
C92         C  0.84164162  0.45042840  0.62799278     0.76600
Zn93       Zn  0.67440202  0.99605606  0.84093786     1.49700
Zn94       Zn  0.61622411  0.96779306  0.82930294     1.49400
Zn95       Zn  0.61561665  0.02582302  0.84193448     1.49100
Zn96       Zn  0.64355007  0.00718954  0.78744682     1.49500
O97         O  0.63816464  0.99932862  0.82474527    -1.84700
O98         O  0.67540412  0.96036297  0.86158953    -0.56100
O99         O  0.57517497  0.97353455  0.83572670    -0.75100
O100        O  0.63365056  0.03570814  0.87594032    -0.74600
O101        O  0.63305193  0.94593577  0.85751303    -0.75300
O102        O  0.67694153  0.02491832  0.87021309    -0.74900
O103        O  0.57518078  0.01632068  0.84669047    -0.75500
O104        O  0.62527672  0.04157828  0.77919214    -0.74900
O105        O  0.61901564  0.94651233  0.79635863    -0.75700
O106        O  0.61414300  0.05824736  0.81921300    -0.75000
O107        O  0.62939469  0.97671619  0.76507583    -0.75500
O108        O  0.68228576  0.01131687  0.77704447    -0.75400
O109        O  0.70632882  0.99929407  0.81239071    -0.75200
C110        C  0.65657552  0.94376367  0.86728290     0.76600
C111        C  0.56219693  0.99462620  0.84224617     0.77100
C112        C  0.65813380  0.03638255  0.88340151     0.76000
C113        C  0.61575963  0.06024075  0.79385259     0.76400
C114        C  0.62227501  0.95311226  0.77197603     0.77500
C115        C  0.70499207  0.00667342  0.78770682     0.76600
Zn116      Zn  0.38837702  0.96543374  0.83881413     1.49700
Zn117      Zn  0.33142696  0.99943274  0.84049380     1.49400
Zn118      Zn  0.39031996  0.02362071  0.82902867     1.49100
Zn119      Zn  0.35927715  0.98612591  0.78581196     1.49500
O120        O  0.36673312  0.99341440  0.82335169    -1.84700
O121        O  0.37076875  0.95659732  0.87331782    -0.75300
O122        O  0.33217148  0.03596977  0.85984468    -0.75100
O123        O  0.43091692  0.01639297  0.83523001    -0.74600
O124        O  0.32847424  0.97173650  0.87064677    -0.75300
O125        O  0.42959723  0.97292895  0.84291791    -0.74900
O126        O  0.37539117  0.04740430  0.85711210    -0.75500
O127        O  0.37158268  0.01798619  0.76410681    -0.74900
O128        O  0.29882453  0.99742707  0.81297781    -0.75700
O129        O  0.38728804  0.04457795  0.79651663    -0.75000
O130        O  0.31994392  0.98255777  0.77678018    -0.75500
O131        O  0.37608162  0.95110410  0.77553703    -0.75400
O132        O  0.38643436  0.93344619  0.81531216    -0.75200
C133        C  0.34697314  0.95857379  0.88258866     0.76600
C134        C  0.35173850  0.05158048  0.86580298     0.77100
C135        C  0.44322640  0.99455244  0.84027913     0.76000
C136        C  0.38045403  0.04060844  0.77231444     0.76400
C137        C  0.29832269  0.98928322  0.78850172     0.77500
C138        C  0.38408390  0.93155254  0.78996794     0.76600
Zn139      Zn  0.49093701  0.13680638  0.71614247     1.49700
Zn140      Zn  0.47060156  0.10983345  0.66266571     1.49400
Zn141      Zn  0.49944332  0.16819655  0.66226846     1.49100
Zn142      Zn  0.52861528  0.10992374  0.67164693     1.49500
O143        O  0.49773030  0.13206349  0.67859561    -1.84700
O144        O  0.45616728  0.11851502  0.72491966    -0.75300
O145        O  0.46158855  0.12560230  0.62755857    -0.75100
O146        O  0.49660440  0.20012498  0.69107117    -0.74600
O147        O  0.43802880  0.11148231  0.68458164    -0.75300
O148        O  0.48733671  0.17555287  0.72691628    -0.74900
O149        O  0.46920514  0.16945410  0.63432627    -0.75500
O150        O  0.54958211  0.12784211  0.64299311    -0.74900
O151        O  0.47835000  0.06914934  0.66085202    -0.75700
O152        O  0.53422557  0.16993139  0.64004792    -0.75000
O153        O  0.52231207  0.06873118  0.66474864    -0.75500
O154        O  0.55075711  0.11213459  0.70397637    -0.75400
O155        O  0.52266710  0.12313220  0.73695628    -0.75200
C156        C  0.43658303  0.11133353  0.70998578     0.76600
C157        C  0.45883767  0.15011794  0.62082870     0.77100
C158        C  0.49076427  0.19848917  0.71617255     0.76000
C159        C  0.55094732  0.15158654  0.63349537     0.76400
C160        C  0.50017046  0.05595810  0.66215935     0.77500
C161        C  0.54581545  0.11604365  0.72868376     0.76600
Zn162      Zn  0.53216923  0.83880696  0.68508845     1.49700
Zn163      Zn  0.47056856  0.83533057  0.68329961     1.49400
Zn164      Zn  0.49790090  0.88979806  0.70479869     1.49100
Zn165      Zn  0.50135337  0.87975699  0.64633523     1.49500
O166        O  0.50028200  0.86065312  0.67985409    -1.84700
O167        O  0.52454296  0.80516916  0.70781857    -0.75300
O168        O  0.44462412  0.85158995  0.70893572    -0.75100
O169        O  0.53450163  0.89514473  0.71900585    -0.74600
O170        O  0.48091775  0.79903361  0.70150270    -0.75300
O171        O  0.55965327  0.86150756  0.70347018    -0.74900
O172        O  0.47030769  0.88033028  0.73212289    -0.75500
O173        O  0.50511361  0.92187897  0.64857371    -0.74900
O174        O  0.45106166  0.83292992  0.64747163    -0.75700
O175        O  0.48924307  0.92739667  0.68953369    -0.75000
O176        O  0.46801943  0.86894375  0.62661008    -0.75500
O177        O  0.53146723  0.86433580  0.62529041    -0.75400
O178        O  0.54853932  0.83042371  0.64894678    -0.75200
C179        C  0.50312522  0.79158749  0.71203346     0.76600
C180        C  0.44840635  0.86747112  0.72858901     0.77100
C181        C  0.55708288  0.88385255  0.71549708     0.76000
C182        C  0.49712945  0.93748496  0.66734889     0.76400
C183        C  0.45113819  0.84961092  0.62793167     0.77500
C184        C  0.54742337  0.84451967  0.62757906     0.76600
Zn185      Zn  0.38671561  0.83833127  0.97323935     1.49700
Zn186      Zn  0.35775712  0.78512307  0.99337910     1.49400
Zn187      Zn  0.38649322  0.82789950  0.03089760     1.49100
Zn188      Zn  0.32841355  0.83901118  0.00359572     1.49500
O189        O  0.36417999  0.82221316  0.00009727    -1.84700
O190        O  0.38573960  0.81547508  0.94102331    -0.75300
O191        O  0.37031802  0.76415300  0.02531241    -0.75100
O192        O  0.42781383  0.83199690  0.02456714    -0.74600
O193        O  0.37533500  0.77559767  0.95866990    -0.75300
O194        O  0.42748891  0.84203389  0.98159994    -0.74900
O195        O  0.38106859  0.79666922  0.05421902    -0.75500
O196        O  0.32816342  0.86039454  0.03845107    -0.74900
O197        O  0.31878347  0.77574026  0.98944673    -0.75700
O198        O  0.37187287  0.85995239  0.04896274    -0.75000
O199        O  0.29553653  0.81174297  0.00083108    -0.75500
O200        O  0.32657174  0.86837163  0.97491878    -0.75400
O201        O  0.37001463  0.87294857  0.96416457    -0.75200
C202        C  0.38374646  0.79011489  0.93928906     0.76600
C203        C  0.37673437  0.77207418  0.04883639     0.77100
C204        C  0.44066726  0.83789378  0.00315965     0.76000
C205        C  0.34833268  0.86952913  0.05145093     0.76400
C206        C  0.29632158  0.78698640  0.99373782     0.77500
C207        C  0.34583368  0.88121508  0.96369907     0.76600
Zn208      Zn  0.61317857  0.82775697  0.97431946     1.49700
Zn209      Zn  0.67158060  0.83771720  0.00129265     1.49400
Zn210      Zn  0.61367499  0.83836885  0.03238857     1.49100
Zn211      Zn  0.64073583  0.78386992  0.01213345     1.49500
O212        O  0.63551730  0.82155193  0.00517058    -1.84700
O213        O  0.63036874  0.85565896  0.95196374    -0.75300
O214        O  0.67495589  0.86717640  0.02984412    -0.75100
O215        O  0.57293667  0.84254507  0.02408805    -0.74600
O216        O  0.67296090  0.85804353  0.96574124    -0.75300
O217        O  0.57237734  0.83442340  0.98069975    -0.74900
O218        O  0.63180051  0.87267858  0.04134239    -0.75500
O219        O  0.62323503  0.77562027  0.04721860    -0.74900
O220        O  0.70273574  0.80902830  0.00277555    -0.75700
O221        O  0.61319253  0.81557917  0.06477674    -0.75000
O222        O  0.67977669  0.77256570  0.01429456    -0.75500
O223        O  0.62481010  0.76260079  0.98149642    -0.75400
O224        O  0.61456675  0.79526827  0.95285941    -0.75200
C225        C  0.65430747  0.86436963  0.94936017     0.76600
C226        C  0.65622671  0.88047741  0.04129677     0.77100
C227        C  0.55967250  0.83940920  0.00238677     0.76000
C228        C  0.61432373  0.79016313  0.06632329     0.76400
C229        C  0.70202351  0.78401573  0.00892316     0.77500
C230        C  0.61730737  0.77059471  0.95836138     0.76600
Zn231      Zn  0.48825295  0.71050313  0.14004495     1.49700
Zn232      Zn  0.46700302  0.65669998  0.11327884     1.49400
Zn233      Zn  0.52543760  0.66689872  0.11229534     1.49100
Zn234      Zn  0.49791766  0.65676386  0.17135886     1.49500
O235        O  0.49466836  0.67287479  0.13499894    -1.84700
O236        O  0.45363674  0.71963342  0.12246229    -0.75300
O237        O  0.47507779  0.65239520  0.07272482    -0.75100
O238        O  0.54741672  0.69950451  0.11397794    -0.74600
O239        O  0.43496180  0.67980853  0.11364955    -0.75300
O240        O  0.51975063  0.73201453  0.12672377    -0.74900
O241        O  0.51875615  0.65899308  0.07165870    -0.75500
O242        O  0.53398244  0.63707908  0.17251006    -0.74900
O243        O  0.45791124  0.62219089  0.13054656    -0.75700
O244        O  0.54752260  0.63931522  0.12970519    -0.75000
O245        O  0.46994283  0.62632303  0.17372461    -0.75500
O246        O  0.49465766  0.68555956  0.20324349    -0.75400
O247        O  0.48475609  0.72112998  0.17864020    -0.75200
C248        C  0.43387895  0.70525044  0.11469429     0.76600
C249        C  0.49677155  0.65439874  0.05928146     0.77100
C250        C  0.54274123  0.72403310  0.11895432     0.76000
C251        C  0.55027664  0.63083526  0.15366547     0.76400
C252        C  0.45838987  0.61350566  0.15461152     0.77500
C253        C  0.48853724  0.71055491  0.20154202     0.76600
Zn254      Zn  0.49388836  0.65868093  0.82902511     1.49700
Zn255      Zn  0.46699518  0.66900268  0.88748800     1.49400
Zn256      Zn  0.52421788  0.65766324  0.88702745     1.49100
Zn257      Zn  0.50434273  0.71236436  0.85889055     1.49500
O258        O  0.49758103  0.67488654  0.86494463    -1.84700
O259        O  0.45972516  0.63610258  0.82909665    -0.75300
O260        O  0.47372119  0.66388793  0.92839750    -0.75100
O261        O  0.53599993  0.62519533  0.86804911    -0.74600
O262        O  0.44803625  0.63773342  0.87247201    -0.75300
O263        O  0.52438408  0.63134000  0.82503793    -0.74900
O264        O  0.51557061  0.65027948  0.92706925    -0.75500
O265        O  0.53800853  0.72185131  0.87875912    -0.74900
O266        O  0.44376696  0.70023186  0.88354183    -0.75700
O267        O  0.55501490  0.68191380  0.88982273    -0.75000
O268        O  0.47194093  0.73292348  0.87154364    -0.75500
O269        O  0.50889551  0.72261362  0.81968164    -0.75400
O270        O  0.49410120  0.68695237  0.79740910    -0.75200
C271        C  0.44576939  0.62785422  0.84898884     0.76600
C272        C  0.49459973  0.65565182  0.94067118     0.77100
C273        C  0.53692500  0.61851346  0.84339269     0.76000
C274        C  0.55650373  0.70731758  0.88882322     0.76400
C275        C  0.44875980  0.72482052  0.87894628     0.77500
C276        C  0.50221169  0.71142280  0.79765737     0.76600
Zn277      Zn  0.81366450  0.66050671  0.97081175     1.49700
Zn278      Zn  0.82052261  0.65934073  0.03158230     1.49400
Zn279      Zn  0.79179956  0.60903299  0.00426178     1.49100
Zn280      Zn  0.85226896  0.61589178  0.99682181     1.49500
O281        O  0.81946944  0.63586406  0.00057503    -1.84700
O282        O  0.79480044  0.69575852  0.98203774    -0.75300
O283        O  0.80583069  0.63813096  0.06208939    -0.75100
O284        O  0.76621793  0.61354716  0.97330188    -0.74600
O285        O  0.79657898  0.69291265  0.02641541    -0.75300
O286        O  0.78800572  0.64226338  0.94642775    -0.74900
O287        O  0.77543605  0.61298843  0.04058475    -0.75500
O288        O  0.84889190  0.57382198  0.99660560    -0.74900
O289        O  0.85928812  0.66650819  0.04194126    -0.75700
O290        O  0.80534332  0.56958039  0.00382008    -0.75000
O291        O  0.87670814  0.62838290  0.02619067    -0.75500
O292        O  0.87011455  0.62897870  0.96360225    -0.75400
O293        O  0.84833667  0.66548304  0.94970585    -0.75200
C294        C  0.78811035  0.70461979  0.00518642     0.76600
C295        C  0.78680080  0.62112347  0.06204966     0.77100
C296        C  0.76936481  0.62528190  0.95070119     0.76000
C297        C  0.82832818  0.55882135  0.00041228     0.76400
C298        C  0.87844101  0.64953175  0.04062511     0.77500
C299        C  0.86816487  0.64934001  0.94822272     0.76600
Zn300      Zn  0.78177237  0.35725453  0.99142831     1.49700
Zn301      Zn  0.82471061  0.38541377  0.02835706     1.49400
Zn302      Zn  0.83615182  0.32776946  0.00107893     1.49100
Zn303      Zn  0.83512871  0.38660449  0.97056316     1.49500
O304        O  0.81924227  0.36348400  0.99739259    -1.84700
O305        O  0.76129440  0.37008774  0.02353117    -0.75300
O306        O  0.85721486  0.37174863  0.04661270    -0.75100
O307        O  0.80805629  0.29517710  0.99940796    -0.74600
O308        O  0.79430660  0.37905523  0.05231912    -0.75300
O309        O  0.77204547  0.31832238  0.98776563    -0.74900
O310        O  0.85858294  0.32815104  0.03585736    -0.75500
O311        O  0.86863933  0.36865394  0.95897932    -0.74900
O312        O  0.82632978  0.42674925  0.02193405    -0.75700
O313        O  0.86448131  0.32545172  0.97108514    -0.75000
O314        O  0.84059947  0.42729885  0.98012527    -0.75500
O315        O  0.81026442  0.38745898  0.93958881    -0.75400
O316        O  0.77102815  0.37512750  0.95730446    -0.75200
C317        C  0.76956666  0.37585156  0.04707713     0.76600
C318        C  0.86713177  0.34834185  0.04936446     0.77100
C319        C  0.78321652  0.29591092  0.99248486     0.76000
C320        C  0.87671733  0.34437009  0.95861444     0.76400
C321        C  0.83388233  0.44004797  0.00134909     0.77500
C322        C  0.78492084  0.38471378  0.93804951     0.76600
Zn323      Zn  0.71622155  0.49305303  0.13869632     1.49700
Zn324      Zn  0.66204784  0.50250960  0.16863670     1.49400
Zn325      Zn  0.67505624  0.53301200  0.11245263     1.49100
Zn326      Zn  0.66042315  0.47602492  0.10970477     1.49500
O327        O  0.67885475  0.50102818  0.13306551    -1.84700
O328        O  0.72629744  0.48823732  0.17768407    -0.75300
O329        O  0.63978039  0.53669163  0.16991872    -0.75100
O330        O  0.70709870  0.55474543  0.11881082    -0.74600
O331        O  0.69019348  0.50097312  0.20032133    -0.75300
O332        O  0.73903382  0.52452908  0.12614025    -0.74900
O333        O  0.64496861  0.55352854  0.12856258    -0.75500
O334        O  0.65587325  0.48650376  0.06960018    -0.74900
O335        O  0.63492961  0.47152575  0.17068072    -0.75700
O336        O  0.67237785  0.52756436  0.07083020    -0.75000
O337        O  0.62620161  0.46517477  0.12704922    -0.75500
O338        O  0.68277852  0.44363775  0.10800415    -0.75400
O339        O  0.72340501  0.45808963  0.12053827    -0.75200
C340        C  0.71483275  0.49360704  0.19985406     0.76600
C341        C  0.63419820  0.55398870  0.15182903     0.77100
C342        C  0.73161981  0.54864365  0.12169826     0.76000
C343        C  0.66378387  0.50751041  0.05723747     0.76400
C344        C  0.62082478  0.46127998  0.15176867     0.77500
C345        C  0.70782716  0.44007364  0.11092973     0.76600
Zn346      Zn  0.64561742  0.50075533  0.88176202     1.49700
Zn347      Zn  0.68272297  0.47322404  0.83709123     1.49400
Zn348      Zn  0.67981277  0.53439973  0.83894855     1.49100
Zn349      Zn  0.70658862  0.50587033  0.88834053     1.49500
O350        O  0.67865125  0.50327426  0.86187330    -1.84700
O351        O  0.62762297  0.46674166  0.87056592    -0.75300
O352        O  0.70162432  0.48366202  0.80160556    -0.75100
O353        O  0.64195208  0.54591187  0.83098548    -0.74600
O354        O  0.64730070  0.45320320  0.83272138    -0.75300
O355        O  0.62144433  0.52947034  0.86735412    -0.74900
O356        O  0.70308596  0.52799468  0.80539187    -0.75500
O357        O  0.72641511  0.54033686  0.88330991    -0.74900
O358        O  0.70729436  0.44758727  0.85496296    -0.75700
O359        O  0.69627750  0.56402629  0.86032052    -0.75000
O360        O  0.72976028  0.47360050  0.88403507    -0.75500
O361        O  0.69309660  0.50690607  0.92781171    -0.75400
O362        O  0.64914076  0.50223552  0.92376478    -0.75200
C363        C  0.62854075  0.45130153  0.85013122     0.76600
C364        C  0.70977920  0.50648727  0.79309403     0.77100
C365        C  0.62140455  0.54398871  0.84620386     0.76000
C366        C  0.71620030  0.56259341  0.87614445     0.76400
C367        C  0.72584663  0.45126242  0.87209842     0.77500
C368        C  0.66991613  0.50508167  0.93864819     0.76600
Zn369      Zn  0.96905803  0.82742544  0.60585447     1.49700
Zn370      Zn  0.02745611  0.83747650  0.60428925     1.49400
Zn371      Zn  0.99922061  0.84058519  0.66275633     1.49100
Zn372      Zn  0.00749007  0.78469359  0.63535468     1.49500
O373        O  0.00063251  0.82220533  0.62771222    -1.84700
O374        O  0.97460919  0.83279641  0.56437465    -0.75300
O375        O  0.03875418  0.87245436  0.61929330    -0.75100
O376        O  0.96476257  0.86268469  0.66359434    -0.74600
O377        O  0.01820964  0.83988404  0.56392169    -0.75300
O378        O  0.94753397  0.85643914  0.62259437    -0.74900
O379        O  0.03021313  0.86806112  0.66320211    -0.75500
O380        O  0.01006236  0.77558422  0.67493993    -0.74900
O381        O  0.05926476  0.81436124  0.60504115    -0.75700
O382        O  0.00009343  0.81355169  0.69586787    -0.75000
O383        O  0.04272602  0.77499929  0.61861382    -0.75500
O384        O  0.97605602  0.76267146  0.62218172    -0.75400
O385        O  0.94751828  0.79477938  0.61002989    -0.75200
C386        C  0.99620927  0.83701819  0.55115542     0.76600
C387        C  0.04154569  0.88019960  0.64352584     0.77100
C388        C  0.94697374  0.86742190  0.64573914     0.76000
C389        C  0.00541451  0.78834106  0.69656766     0.76400
C390        C  0.06163579  0.78929391  0.60876724     0.77500
C391        C  0.95272745  0.77035392  0.61501850     0.76600
Zn392      Zn  0.97008882  0.83662429  0.37731554     1.49700
Zn393      Zn  0.00351376  0.83742202  0.32079974     1.49400
Zn394      Zn  0.02788110  0.82717058  0.37946182     1.49100
Zn395      Zn  0.99216238  0.78326816  0.35121289     1.49500
O396        O  0.99812449  0.82077523  0.35633492    -1.84700
O397        O  0.96103925  0.87080188  0.35950274    -0.75300
O398        O  0.03782958  0.86099633  0.32252973    -0.75100
O399        O  0.01965777  0.83003727  0.42013875    -0.74600
O400        O  0.97351850  0.86524134  0.31658388    -0.75300
O401        O  0.97687370  0.84063008  0.41844275    -0.74900
O402        O  0.04575768  0.86018096  0.36668161    -0.75500
O403        O  0.02466498  0.76332568  0.36451507    -0.74900
O404        O  0.00299536  0.80855494  0.28906406    -0.75700
O405        O  0.05248094  0.79701785  0.37445654    -0.75000
O406        O  0.98894511  0.77328439  0.31242216    -0.75500
O407        O  0.95751041  0.77314846  0.36914869    -0.75400
O408        O  0.93834093  0.81307586  0.37547340    -0.75200
C409        C  0.96122725  0.87826121  0.33501435     0.76600
C410        C  0.04958776  0.87025401  0.34350066     0.77100
C411        C  0.99793053  0.83603939  0.43227242     0.76000
C412        C  0.04792398  0.77216473  0.37080256     0.76400
C413        C  0.99505517  0.78397620  0.29004389     0.77500
C414        C  0.93751078  0.78759554  0.37593002     0.76600
Zn415      Zn  0.14013270  0.71329768  0.48566521     1.49700
Zn416      Zn  0.11236808  0.65972982  0.46432141     1.49400
Zn417      Zn  0.16963349  0.65882137  0.49605972     1.49100
Zn418      Zn  0.11133580  0.66906124  0.52255846     1.49500
O419        O  0.13408359  0.67554882  0.49205468    -1.84700
O420        O  0.12260586  0.72294224  0.45069733    -0.75300
O421        O  0.12950791  0.62530787  0.45470977    -0.75100
O422        O  0.20132700  0.68717427  0.49547427    -0.74600
O423        O  0.11338879  0.68303408  0.43242265    -0.75300
O424        O  0.17920802  0.72356612  0.48276120    -0.74900
O425        O  0.17262495  0.62995810  0.46680615    -0.75500
O426        O  0.12736663  0.64080518  0.54475857    -0.74900
O427        O  0.07159453  0.65614245  0.47211345    -0.75700
O428        O  0.17007053  0.63816577  0.53138911    -0.75000
O429        O  0.07072090  0.66259038  0.51582947    -0.75500
O430        O  0.11409834  0.70090267  0.54474691    -0.75400
O431        O  0.12717987  0.73416971  0.51795444    -0.75200
C432        C  0.11466852  0.70845324  0.43103903     0.76600
C433        C  0.15379512  0.61731847  0.45461169     0.77100
C434        C  0.20111325  0.71206390  0.48885723     0.76000
C435        C  0.15113540  0.63200135  0.54755511     0.76400
C436        C  0.05824339  0.65843037  0.49384823     0.77500
C437        C  0.11944354  0.72546875  0.54079015     0.76600
Zn438      Zn  0.88247127  0.64414889  0.49741492     1.49700
Zn439      Zn  0.84077931  0.68262736  0.46517795     1.49400
Zn440      Zn  0.84003502  0.68179964  0.52637440     1.49100
Zn441      Zn  0.89318129  0.70305461  0.49611756     1.49500
O442        O  0.86407813  0.67801137  0.49596446    -1.84700
O443        O  0.87182533  0.62466959  0.46437060    -0.75300
O444        O  0.80489860  0.70230569  0.47389150    -0.75100
O445        O  0.82958263  0.64508148  0.53967970    -0.74600
O446        O  0.83738284  0.64673055  0.44609370    -0.75300
O447        O  0.86586322  0.62245337  0.52660298    -0.74900
O448        O  0.80734554  0.70537303  0.51817145    -0.75500
O449        O  0.89563984  0.71617750  0.53368664    -0.74900
O450        O  0.85980691  0.70733176  0.44031068    -0.75700
O451        O  0.86092845  0.69846553  0.55611385    -0.75000
O452        O  0.88576935  0.73101522  0.46833750    -0.75500
O453        O  0.93085486  0.68755035  0.48842145    -0.75400
O454        O  0.92443486  0.64537098  0.50051877    -0.75200
C455        C  0.85300961  0.62642957  0.44712111     0.76600
C456        C  0.79571970  0.71137366  0.49613180     0.77100
C457        C  0.84400020  0.62396871  0.53983055     0.76000
C458        C  0.88291030  0.71143028  0.55537293     0.76400
C459        C  0.87518167  0.72715086  0.44531062     0.77500
C460        C  0.94035273  0.66448094  0.49399813     0.76600
Zn461      Zn  0.82384114  0.96849602  0.61162466     1.49700
Zn462      Zn  0.83654272  0.02643148  0.61023479     1.49400
Zn463      Zn  0.78262526  0.00790270  0.64093182     1.49100
Zn464      Zn  0.83720574  0.99755983  0.66940402     1.49500
O465        O  0.81983046  0.00013716  0.63360325    -1.84700
O466        O  0.83042866  0.97358338  0.57015106    -0.75300
O467        O  0.81311768  0.05828858  0.60895077    -0.75100
O468        O  0.75963435  0.97737078  0.62765557    -0.74600
O469        O  0.84163136  0.01632260  0.56985465    -0.75300
O470        O  0.79070330  0.94763851  0.61557739    -0.74900
O471        O  0.77378243  0.04277146  0.62374046    -0.75500
O472        O  0.81003216  0.99969815  0.70251702    -0.74900
O473        O  0.87051060  0.03780796  0.62770407    -0.75700
O474        O  0.77362014  0.01166947  0.68022489    -0.75000
O475        O  0.86496664  0.02785431  0.67124543    -0.75500
O476        O  0.85930882  0.96286731  0.66967416    -0.75400
O477        O  0.85240009  0.94689972  0.62824943    -0.75200
C478        C  0.83743294  0.99450519  0.55699677     0.76600
C479        C  0.78812238  0.06109763  0.61301808     0.77100
C480        C  0.76645676  0.95387549  0.62019021     0.76000
C481        C  0.78531385  0.00689070  0.70240904     0.76400
C482        C  0.87769054  0.03955478  0.65222840     0.77500
C483        C  0.86391417  0.94575859  0.65105543     0.76600
Zn484      Zn  0.78602469  0.98797388  0.35658745     1.49700
Zn485      Zn  0.83956101  0.99758701  0.32516658     1.49400
Zn486      Zn  0.83068183  0.02382801  0.38453172     1.49100
Zn487      Zn  0.83980362  0.96512609  0.38258640     1.49500
O488        O  0.82385508  0.99351935  0.36157443    -1.84700
O489        O  0.77544859  0.98568812  0.31801205    -0.75300
O490        O  0.86125864  0.03257086  0.32479251    -0.75100
O491        O  0.79881392  0.04644974  0.38331806    -0.74600
O492        O  0.81102671  0.99581851  0.29343258    -0.75300
O493        O  0.76536381  0.01927810  0.37146286    -0.74900
O494        O  0.85945823  0.04554920  0.36779564    -0.75500
O495        O  0.84398672  0.97243481  0.42402231    -0.74900
O496        O  0.86775213  0.96842317  0.32102768    -0.75700
O497        O  0.83708333  0.01604358  0.42515243    -0.75000
O498        O  0.87383349  0.95515391  0.36364232    -0.75500
O499        O  0.81537359  0.93370673  0.38121854    -0.75400
O500        O  0.77588879  0.95282955  0.37266055    -0.75200
C501        C  0.78605004  0.98971142  0.29515846     0.76600
C502        C  0.86830928  0.04823662  0.34392162     0.77100
C503        C  0.77402537  0.04202189  0.37949210     0.76000
C504        C  0.84138214  0.99407477  0.43762128     0.76400
C505        C  0.88092932  0.95573364  0.33897039     0.77500
C506        C  0.78991295  0.93272447  0.37982317     0.76600
Zn507      Zn  0.65870512  0.11256012  0.46727725     1.49700
Zn508      Zn  0.71151342  0.13854810  0.49053925     1.49400
Zn509      Zn  0.65850289  0.17006852  0.49979677     1.49100
Zn510      Zn  0.66647644  0.11057602  0.52631990     1.49500
O511        O  0.67386982  0.13363663  0.49600766    -1.84700
O512        O  0.68316214  0.11320772  0.43604030    -0.75300
O513        O  0.72276664  0.17692352  0.48645221    -0.75100
O514        O  0.62949906  0.17340302  0.47089949    -0.74600
O515        O  0.72211244  0.11904592  0.45734797    -0.75300
O516        O  0.62453662  0.13062570  0.45745165    -0.74900
O517        O  0.68780939  0.20165013  0.49787163    -0.75500
O518        O  0.63750849  0.12752482  0.54759519    -0.74900
O519        O  0.73121407  0.12629544  0.52311331    -0.75700
O520        O  0.63733755  0.17073082  0.53516889    -0.75000
O521        O  0.69808356  0.11263712  0.54977552    -0.75500
O522        O  0.65999945  0.06970701  0.51831332    -0.75400
O523        O  0.65503412  0.07151872  0.47440389    -0.75200
C524        C  0.70860073  0.11192249  0.43678551     0.76600
C525        C  0.71266202  0.19984138  0.49121273     0.77100
C526        C  0.61661214  0.15497336  0.45836470     0.76000
C527        C  0.62965480  0.15168763  0.55064459     0.76400
C528        C  0.72265115  0.11818232  0.54578892     0.77500
C529        C  0.65676744  0.05764260  0.49586866     0.76600
Zn530      Zn  0.64377397  0.88078097  0.49909153     1.49700
Zn531      Zn  0.68363832  0.83955852  0.52824624     1.49400
Zn532      Zn  0.68162650  0.83829849  0.46694593     1.49100
Zn533      Zn  0.70208769  0.89218138  0.49498135     1.49500
O534        O  0.67772129  0.86254442  0.49708955    -1.84700
O535        O  0.62472015  0.86610646  0.53094142    -0.75300
O536        O  0.70688436  0.80628802  0.51991024    -0.75100
O537        O  0.64509058  0.83327424  0.44982773    -0.74600
O538        O  0.64786321  0.83053116  0.54512900    -0.75300
O539        O  0.62223268  0.86744113  0.46777391    -0.74900
O540        O  0.70192191  0.80302573  0.47585763    -0.75500
O541        O  0.72986126  0.88288593  0.46764916    -0.74900
O542        O  0.70160294  0.86186952  0.55607476    -0.75700
O543        O  0.70555478  0.85645886  0.44054756    -0.75000
O544        O  0.71521640  0.89735277  0.53215922    -0.75500
O545        O  0.68632786  0.92955784  0.48576578    -0.75400
O546        O  0.64510458  0.92316484  0.50067104    -0.75200
C547        C  0.62708188  0.84544280  0.54584540     0.76600
C548        C  0.71199353  0.79428568  0.49778473     0.77100
C549        C  0.62408090  0.84788332  0.45124606     0.76000
C550        C  0.72582619  0.87140006  0.44507361     0.76400
C551        C  0.71226322  0.88499570  0.55433742     0.77500
C552        C  0.66368371  0.93916185  0.49280389     0.76600
Zn553      Zn  0.61145841  0.97237890  0.16050306     1.49700
Zn554      Zn  0.67074250  0.00086591  0.16178772     1.49400
Zn555      Zn  0.61404265  0.03011169  0.17396433     1.49100
Zn556      Zn  0.64005180  0.99091857  0.21566850     1.49500
O557        O  0.63468922  0.99820956  0.17820600    -1.84700
O558        O  0.62984946  0.96196748  0.12651732    -0.75300
O559        O  0.67231623  0.03582620  0.14067671    -0.75100
O560        O  0.57290443  0.02489772  0.16977265    -0.74600
O561        O  0.67324475  0.97190785  0.13311957    -0.75300
O562        O  0.57124514  0.98322881  0.15498951    -0.74900
O563        O  0.63036940  0.05118128  0.14465927    -0.75500
O564        O  0.62640407  0.02183277  0.23820716    -0.74900
O565        O  0.70273031  0.99784324  0.18949210    -0.75700
O566        O  0.61886223  0.05182666  0.20612020    -0.75000
O567        O  0.67892759  0.98733117  0.22551649    -0.75500
O568        O  0.62300807  0.95558420  0.22369731    -0.75400
O569        O  0.60968365  0.94005810  0.18378923    -0.75200
C570        C  0.65448385  0.96081691  0.11953184     0.76600
C571        C  0.65390066  0.05257883  0.13471700     0.77100
C572        C  0.55914047  0.00481405  0.16162913     0.76000
C573        C  0.62123633  0.04575507  0.23071174     0.76400
C574        C  0.70156304  0.99122619  0.21433062     0.77500
C575        C  0.61325013  0.93704061  0.20889831     0.76600
Zn576      Zn  0.38345518  0.00492865  0.14257730     1.49700
Zn577      Zn  0.34027336  0.03752270  0.17737898     1.49400
Zn578      Zn  0.34079985  0.97683047  0.18098228     1.49100
Zn579      Zn  0.39108394  0.00957820  0.20337123     1.49500
O580        O  0.36434291  0.00721534  0.17600945    -1.84700
O581        O  0.36843676  0.03364303  0.11878618    -0.75300
O582        O  0.30742763  0.03042461  0.20213588    -0.75100
O583        O  0.33446040  0.95788935  0.14589008    -0.74600
O584        O  0.33117535  0.04795887  0.13924997    -0.75300
O585        O  0.37152244  0.97128867  0.12461798    -0.74900
O586        O  0.30670145  0.98597846  0.20176206    -0.75500
O587        O  0.38575597  0.97867854  0.22853880    -0.74900
O588        O  0.36151980  0.06807064  0.19238621    -0.75700
O589        O  0.35996166  0.95114336  0.20410068    -0.75000
O590        O  0.38814044  0.04539792  0.22041187    -0.75500
O591        O  0.43019771  0.00845616  0.18940635    -0.75400
O592        O  0.42553802  0.00560747  0.14532482    -0.75200
C593        C  0.34650178  0.04688885  0.11868422     0.76600
C594        C  0.29696938  0.00822237  0.20985459     0.77100
C595        C  0.35091959  0.95612618  0.12635717     0.76000
C596        C  0.37558243  0.95561560  0.22375209     0.76400
C597        C  0.37933087  0.06726602  0.21061192     0.77500
C598        C  0.44068861  0.00707052  0.16605115     0.76600
Zn599      Zn  0.50775104  0.14053063  0.28549136     1.49700
Zn600      Zn  0.52532881  0.11231159  0.34080749     1.49400
Zn601      Zn  0.49422133  0.16963693  0.33933494     1.49100
Zn602      Zn  0.46867945  0.11124113  0.32615877     1.49500
O603        O  0.49925096  0.13416875  0.32251409    -1.84700
O604        O  0.54260933  0.12195693  0.27822201    -0.75300
O605        O  0.53358171  0.13019359  0.37539615    -0.75100
O606        O  0.49588099  0.20171073  0.31114487    -0.74600
O607        O  0.55830288  0.11222030  0.31910878    -0.75300
O608        O  0.51264827  0.17986989  0.27614511    -0.74900
O609        O  0.52346021  0.17336875  0.36812282    -0.75500
O610        O  0.44867775  0.12478428  0.35735442    -0.74900
O611        O  0.51714523  0.07153289  0.34479800    -0.75700
O612        O  0.45927073  0.16825960  0.36129433    -0.75000
O613        O  0.47567631  0.07015869  0.32976817    -0.75500
O614        O  0.44656379  0.11694708  0.29429166    -0.75400
O615        O  0.47620880  0.12818052  0.26267730    -0.75200
C616        C  0.56105861  0.11335108  0.29378814     0.76600
C617        C  0.53454181  0.15490576  0.38208253     0.77100
C618        C  0.50536157  0.20175407  0.28713260     0.76000
C619        C  0.44564210  0.14762514  0.36844316     0.76400
C620        C  0.49654157  0.05784277  0.33800502     0.77500
C621        C  0.45240841  0.12190146  0.26996654     0.76600
Zn622      Zn  0.52701251  0.88467385  0.32757765     1.49700
Zn623      Zn  0.49694268  0.82689909  0.33607315     1.49400
Zn624      Zn  0.46855863  0.88546031  0.33370124     1.49100
Zn625      Zn  0.49142670  0.85715520  0.28159239     1.49500
O626        O  0.49606411  0.86285103  0.31932415    -1.84700
O627        O  0.54315608  0.86881057  0.36034992    -0.75300
O628        O  0.46586142  0.82551917  0.36320203    -0.75100
O629        O  0.47725224  0.92579096  0.33811494    -0.74600
O630        O  0.53034671  0.82561234  0.35995546    -0.75300
O631        O  0.52098265  0.92616907  0.33226932    -0.74900
O632        O  0.45642498  0.86922553  0.36762406    -0.75500
O633        O  0.45855131  0.87708447  0.26960078    -0.74900
O634        O  0.49510197  0.79453773  0.30797358    -0.75700
O635        O  0.43825539  0.88540800  0.30862634    -0.75000
O636        O  0.48643055  0.81823734  0.27142770    -0.75500
O637        O  0.52536107  0.86871705  0.26322220    -0.75400
O638        O  0.55218868  0.87983333  0.29735083    -0.75200
C639        C  0.54418407  0.84500925  0.36967187     0.76600
C640        C  0.45444479  0.84498299  0.37547709     0.77100
C641        C  0.49914192  0.93896202  0.33621314     0.76000
C642        C  0.43844636  0.88535587  0.28313658     0.76400
C643        C  0.48951927  0.79557898  0.28281307     0.77500
C644        C  0.54833051  0.87536183  0.27247563     0.76600
Zn645      Zn  0.66993726  0.15960593  0.00167992     1.49700
Zn646      Zn  0.61206275  0.15738547  0.97139021     1.49400
Zn647      Zn  0.61162408  0.16848547  0.02909959     1.49100
Zn648      Zn  0.63854413  0.21263371  0.99118251     1.49500
O649        O  0.63373335  0.17496995  0.99816050    -1.84700
O650        O  0.67362420  0.13080418  0.97283373    -0.75300
O651        O  0.57155212  0.15286488  0.97974798    -0.75100
O652        O  0.62821953  0.13928364  0.05020494    -0.74600
O653        O  0.63058931  0.12347033  0.96181694    -0.75300
O654        O  0.67109314  0.13871370  0.03677451    -0.74900
O655        O  0.57044138  0.16337580  0.02264230    -0.75500
O656        O  0.62692732  0.23349367  0.02429234    -0.74900
O657        O  0.61071196  0.18028733  0.93940041    -0.75700
O658        O  0.61578491  0.20002538  0.05173667    -0.75000
O659        O  0.61827242  0.22088950  0.95713076    -0.75500
O660        O  0.67748956  0.22344386  0.98598409    -0.75400
O661        O  0.70120872  0.18849448  0.99964627    -0.75200
C662        C  0.65530870  0.11684208  0.96140291     0.76600
C663        C  0.55801432  0.15742213  0.00098999     0.77100
C664        C  0.65236644  0.13125892  0.05266347     0.76000
C665        C  0.62068505  0.22466788  0.04756033     0.76400
C666        C  0.61004233  0.20571701  0.93807081     0.77500
C667        C  0.70007186  0.21296854  0.99172752     0.76600
Zn668      Zn  0.32841213  0.16389303  0.99368880     1.49700
Zn669      Zn  0.35662102  0.21767820  0.00970461     1.49400
Zn670      Zn  0.38526491  0.16283976  0.02587922     1.49100
Zn671      Zn  0.38676034  0.17804330  0.96855219     1.49500
O672        O  0.36377320  0.18084436  0.99946747    -1.84700
O673        O  0.29665443  0.19216744  0.99384960    -0.75300
O674        O  0.37501975  0.22573395  0.04472993    -0.75100
O675        O  0.36691890  0.12895288  0.03480646    -0.74600
O676        O  0.31735211  0.22625612  0.01379116    -0.75300
O677        O  0.32400227  0.13527484  0.02303087    -0.74900
O678        O  0.38633941  0.18482366  0.05874937    -0.75500
O679        O  0.42770527  0.17190993  0.97570931    -0.74900
O680        O  0.36807532  0.24183970  0.97937339    -0.75700
O681        O  0.42548896  0.15735140  0.01737721    -0.75000
O682        O  0.38217132  0.21187643  0.94927818    -0.75500
O683        O  0.37204111  0.14947993  0.94478889    -0.75400
O684        O  0.32991646  0.14261669  0.95840094    -0.75200
C685        C  0.29608157  0.21578779  0.00419770     0.76600
C686        C  0.38464288  0.20998199  0.06244850     0.77100
C687        C  0.34230934  0.12197485  0.03512663     0.76000
C688        C  0.43949073  0.16313336  0.99673231     0.76400
C689        C  0.37565989  0.23567022  0.95571092     0.77500
C690        C  0.34929360  0.13796427  0.94221272     0.76600
Zn691      Zn  0.50775513  0.28992976  0.10896116     1.49700
Zn692      Zn  0.53621738  0.31669362  0.16002249     1.49400
Zn693      Zn  0.50233587  0.35032169  0.11619708     1.49100
Zn694      Zn  0.47501143  0.31234758  0.16096331     1.49500
O695        O  0.50524287  0.31724583  0.13628449    -1.84700
O696        O  0.54373007  0.27314398  0.11162268    -0.75300
O697        O  0.54805007  0.35511111  0.16672411    -0.75100
O698        O  0.50327377  0.34743671  0.07414116    -0.74600
O699        O  0.56638894  0.29999323  0.13963783    -0.75300
O700        O  0.50596559  0.30346461  0.06944237    -0.74900
O701        O  0.53065227  0.37518421  0.13059195    -0.75500
O702        O  0.45324624  0.34679325  0.16389977    -0.74900
O703        O  0.52947283  0.29384531  0.19443065    -0.75700
O704        O  0.46761081  0.36675343  0.12644684    -0.75000
O705        O  0.48512823  0.29475185  0.19728395    -0.75500
O706        O  0.45069249  0.28579345  0.14358772    -0.75400
O707        O  0.47737091  0.26426318  0.11462434    -0.75200
C708        C  0.56558133  0.28196583  0.12160268     0.76600
C709        C  0.54578010  0.37551258  0.15131361     0.77100
C710        C  0.50453334  0.32678757  0.05889757     0.76000
C711        C  0.45113261  0.36495668  0.14592656     0.76400
C712        C  0.50777771  0.28705856  0.20649012     0.77500
C713        C  0.45502424  0.26702699  0.12682664     0.76600
Zn714      Zn  0.48659025  0.28482169  0.86042979     1.49700
Zn715      Zn  0.47325389  0.34219223  0.88742649     1.49400
Zn716      Zn  0.52777425  0.32427094  0.88497022     1.49100
Zn717      Zn  0.50061692  0.33682922  0.82813662     1.49500
O718        O  0.49633021  0.32154696  0.86419333    -1.84700
O719        O  0.45068955  0.28048438  0.87846639    -0.75300
O720        O  0.48417833  0.34656909  0.92790144    -0.75100
O721        O  0.54924477  0.29300717  0.87636763    -0.74600
O722        O  0.43931973  0.32226665  0.89022840    -0.75300
O723        O  0.51694837  0.26205885  0.87532085    -0.74900
O724        O  0.52219791  0.32437428  0.92637259    -0.75500
O725        O  0.53576762  0.35887104  0.82838600    -0.74900
O726        O  0.46473327  0.37600696  0.86819289    -0.75700
O727        O  0.54698404  0.35641347  0.87187054    -0.75000
O728        O  0.47064904  0.36488330  0.82492135    -0.75500
O729        O  0.49832343  0.30723339  0.79697502    -0.75400
O730        O  0.48333251  0.27340920  0.82169181    -0.75200
C731        C  0.43403214  0.29741180  0.88814477     0.76600
C732        C  0.50364309  0.33534112  0.94018804     0.77100
C733        C  0.54169707  0.26868189  0.87738151     0.76000
C734        C  0.54957695  0.36680824  0.84862089     0.76400
C735        C  0.46090709  0.38017605  0.84318010     0.77500
C736        C  0.48975718  0.28290728  0.79881263     0.76600
Zn737      Zn  0.18282402  0.34319068  0.02712535     1.49700
Zn738      Zn  0.20405806  0.39230887  0.99036248     1.49400
Zn739      Zn  0.18012089  0.33793087  0.96634779     1.49100
Zn740      Zn  0.14541995  0.38400525  0.99763119     1.49500
O741        O  0.17820543  0.36417563  0.99496828    -1.84700
O742        O  0.20038517  0.36742706  0.05306923    -0.75300
O743        O  0.22913702  0.38251605  0.96059746    -0.75100
O744        O  0.20026037  0.30265187  0.97733856    -0.74600
O745        O  0.22013770  0.39757800  0.02613131    -0.75300
O746        O  0.20604424  0.31004709  0.02086591    -0.74900
O747        O  0.20235322  0.35480284  0.93747465    -0.75500
O748        O  0.12430363  0.37200975  0.96623612    -0.74900
O749        O  0.18927959  0.43028407  0.98221865    -0.75700
O750        O  0.14264558  0.33412848  0.95054840    -0.75000
O751        O  0.14851123  0.42591717  0.99892963    -0.75500
O752        O  0.12488945  0.37079921  0.02918281    -0.75400
O753        O  0.14685160  0.33489019  0.04399357    -0.75200
C754        C  0.21412717  0.38860321  0.04932173     0.76600
C755        C  0.22230393  0.37076136  0.93887200     0.77100
C756        C  0.21075568  0.29605254  0.99988526     0.76000
C757        C  0.12389559  0.35165627  0.95065460     0.76400
C758        C  0.16740751  0.44092908  0.99011200     0.77500
C759        C  0.12646887  0.35033393  0.04439991     0.76600
Zn760      Zn  0.16336828  0.61438858  0.96504738     1.49700
Zn761      Zn  0.17647484  0.61123931  0.02309378     1.49400
Zn762      Zn  0.21735795  0.64225553  0.98558022     1.49100
Zn763      Zn  0.16228989  0.67041448  0.99912419     1.49500
O764        O  0.18002372  0.63530442  0.99315409    -1.84700
O765        O  0.16002805  0.57325361  0.97174601    -0.75300
O766        O  0.20932380  0.61445472  0.04466302    -0.75100
O767        O  0.22664172  0.62547515  0.95016291    -0.74600
O768        O  0.17069471  0.57079727  0.01461834    -0.75300
O769        O  0.18639836  0.61611697  0.93288930    -0.74900
O770        O  0.24049743  0.62893396  0.01612785    -0.75500
O771        O  0.18989974  0.70331545  0.99852473    -0.74900
O772        O  0.14717369  0.62477672  0.04560430    -0.75700
O773        O  0.22559261  0.68161251  0.98336360    -0.75000
O774        O  0.14084564  0.66768710  0.03453177    -0.75500
O775        O  0.13353990  0.67435287  0.96970504    -0.75400
O776        O  0.12869561  0.63181803  0.95575514    -0.75200
C777        C  0.16442610  0.55914247  0.99266081     0.76600
C778        C  0.23354239  0.62034113  0.03922372     0.77100
C779        C  0.21179541  0.61730089  0.93092701     0.76000
C780        C  0.21432127  0.70346440  0.99020621     0.76400
C781        C  0.13576740  0.64728447  0.04936989     0.77500
C782        C  0.12096431  0.65619726  0.95645660     0.76600
Zn783      Zn  0.32162756  0.46584837  0.10852873     1.49700
Zn784      Zn  0.34192759  0.52108500  0.10525885     1.49400
Zn785      Zn  0.28631346  0.50989974  0.13668689     1.49100
Zn786      Zn  0.33860182  0.49171426  0.16437057     1.49500
O787        O  0.32199840  0.49784665  0.12927909    -1.84700
O788        O  0.32174923  0.47134622  0.06695091    -0.75300
O789        O  0.32167481  0.55532427  0.10176681    -0.75100
O790        O  0.26112405  0.48232864  0.12160570    -0.74600
O791        O  0.34560799  0.50862553  0.06502692    -0.75300
O792        O  0.28844256  0.44709234  0.11821939    -0.74900
O793        O  0.28167340  0.54572093  0.11948651    -0.75500
O794        O  0.31088533  0.49277342  0.19665454    -0.74900
O795        O  0.37630974  0.52948240  0.12428714    -0.75700
O796        O  0.27676819  0.51252439  0.17618976    -0.75000
O797        O  0.36784138  0.52027958  0.16763739    -0.75500
O798        O  0.35924003  0.45638996  0.16291652    -0.75400
O799        O  0.35258880  0.44381919  0.12040684    -0.75200
C800        C  0.33356602  0.48934480  0.05294678     0.76600
C801        C  0.29743629  0.56146727  0.10680240     0.77100
C802        C  0.26512212  0.45728607  0.11811606     0.76000
C803        C  0.28735171  0.50314745  0.19745565     0.76400
C804        C  0.38233980  0.53091234  0.14923081     0.77500
C805        C  0.36463725  0.44132832  0.14285128     0.76600
Zn806      Zn  0.28796827  0.49093568  0.88359377     1.49700
Zn807      Zn  0.34853832  0.49516097  0.87731046     1.49400
Zn808      Zn  0.31518836  0.46270867  0.83281378     1.49100
Zn809      Zn  0.31238844  0.52413322  0.83308487     1.49500
O810        O  0.31586182  0.49324548  0.85696973    -1.84700
O811        O  0.30140788  0.48830759  0.92343422    -0.75300
O812        O  0.37298131  0.46722353  0.86264188    -0.75100
O813        O  0.29559034  0.43335245  0.85197185    -0.74600
O814        O  0.34529289  0.49295863  0.91907056    -0.75300
O815        O  0.26679873  0.45764409  0.87628140    -0.74900
O816        O  0.35353797  0.44997482  0.82610220    -0.75500
O817        O  0.29366899  0.51530278  0.79727563    -0.74900
O818        O  0.36660420  0.52907765  0.86739263    -0.75700
O819        O  0.29312102  0.47084024  0.79867135    -0.75000
O820        O  0.34800535  0.54333043  0.82932487    -0.75500
O821        O  0.28816414  0.55000784  0.85108314    -0.75400
O822        O  0.26570488  0.52414467  0.88016299    -0.75200
C823        C  0.32470962  0.48998059  0.93413357     0.76600
C824        C  0.37379479  0.45245746  0.84171090     0.77100
C825        C  0.27504793  0.43528184  0.86702759     0.76000
C826        C  0.28599728  0.49282379  0.78754434     0.76400
C827        C  0.36634137  0.54470930  0.84717571     0.77500
C828        C  0.26959291  0.54647039  0.86820809     0.76600
Zn829      Zn  0.97340760  0.60725763  0.16113397     1.49700
Zn830      Zn  0.03036055  0.60806665  0.17364950     1.49400
Zn831      Zn  0.00378096  0.66503027  0.15897406     1.49100
Zn832      Zn  0.99313082  0.63721660  0.21500999     1.49500
O833        O  0.99979387  0.63032792  0.17752727    -1.84700
O834        O  0.98209589  0.56644830  0.15781216    -0.75300
O835        O  0.05071183  0.62062047  0.14195503    -0.75100
O836        O  0.97370440  0.66706044  0.13081682    -0.74600
O837        O  0.02331348  0.56695136  0.17367451    -0.75300
O838        O  0.96274170  0.62362718  0.12659828    -0.74900
O839        O  0.03872701  0.66351882  0.13714251    -0.75500
O840        O  0.98999821  0.67671215  0.22278335    -0.74900
O841        O  0.05343857  0.61535761  0.20415097    -0.75700
O842        O  0.00259647  0.69815919  0.18580818    -0.75000
O843        O  0.02501148  0.62467049  0.23727316    -0.75500
O844        O  0.95771009  0.62030903  0.22460750    -0.75400
O845        O  0.94171962  0.60809861  0.18452620    -0.75200
C846        C  0.00275327  0.55372374  0.16589797     0.76600
C847        C  0.05375419  0.64360894  0.13108580     0.77100
C848        C  0.96159267  0.64789938  0.11860115     0.76000
C849        C  0.99534416  0.69852104  0.21055315     0.76400
C850        C  0.04859379  0.61925770  0.22882567     0.77500
C851        C  0.93890976  0.61119138  0.20969263     0.76600
Zn852      Zn  0.97084991  0.33278095  0.18427162     1.49700
Zn853      Zn  0.03218873  0.33644305  0.18298850     1.49400
Zn854      Zn  0.99903928  0.37887337  0.14866065     1.49100
Zn855      Zn  0.00183551  0.38481164  0.20989905     1.49500
O856        O  0.00055619  0.35847900  0.18145521    -1.84700
O857        O  0.98183958  0.29692450  0.20257292    -0.75300
O858        O  0.04695843  0.33090503  0.14593250    -0.75100
O859        O  0.96649610  0.36677443  0.12904017    -0.74600
O860        O  0.02603909  0.30186999  0.20445358    -0.75300
O861        O  0.95157814  0.32908620  0.14809440    -0.74900
O862        O  0.03004274  0.36719386  0.12595835    -0.75500
O863        O  0.00275493  0.42446009  0.19675355    -0.74900
O864        O  0.06019860  0.35752556  0.20176684    -0.75700
O865        O  0.99852977  0.42059235  0.15274067    -0.75000
O866        O  0.03544785  0.38010082  0.23136903    -0.75500
O867        O  0.96860911  0.37993303  0.23165992    -0.75400
O868        O  0.94423546  0.34972697  0.20884072    -0.75200
C869        C  0.00480678  0.28881197  0.21064016     0.76600
C870        C  0.04602215  0.34722103  0.12622099     0.77100
C871        C  0.95061984  0.34664960  0.12938759     0.76000
C872        C  0.00082395  0.43538003  0.17362531     0.76400
C873        C  0.05807274  0.37282537  0.22202174     0.77500
C874        C  0.94675401  0.36725034  0.22728528     0.76600
Zn875      Zn  0.11244401  0.50029313  0.28566319     1.49700
Zn876      Zn  0.11683846  0.49776940  0.34651493     1.49400
Zn877      Zn  0.16290948  0.46918856  0.31120522     1.49100
Zn878      Zn  0.16195612  0.52954993  0.31419795     1.49500
O879        O  0.13820141  0.49894289  0.31427375    -1.84700
O880        O  0.07263662  0.49725961  0.29771358    -0.75300
O881        O  0.12762497  0.46465039  0.36584723    -0.75100
O882        O  0.14409816  0.44307626  0.28795734    -0.74600
O883        O  0.07471519  0.49898110  0.34192175    -0.75300
O884        O  0.11927393  0.46900597  0.26105892    -0.74900
O885        O  0.16613540  0.45082439  0.34754010    -0.75500
O886        O  0.19571774  0.52325100  0.29079343    -0.74900
O887        O  0.13066099  0.52682063  0.37059802    -0.75700
O888        O  0.19875139  0.47890068  0.29180871    -0.75000
O889        O  0.16947530  0.54043112  0.35267512    -0.75500
O890        O  0.14060045  0.55933870  0.29870628    -0.75400
O891        O  0.11476440  0.53691282  0.26946881    -0.75200
C892        C  0.06066435  0.49787574  0.32039989     0.76600
C893        C  0.14833068  0.44966460  0.36603392     0.77100
C894        C  0.12843796  0.44614492  0.26806061     0.76000
C895        C  0.20769992  0.50165609  0.28380284     0.76400
C896        C  0.15271285  0.53990429  0.37211018     0.77500
C897        C  0.12303156  0.55868273  0.28024236     0.76600
Zn898      Zn  0.83961396  0.52392859  0.31217255     1.49700
Zn899      Zn  0.88920894  0.49213814  0.28649459     1.49400
Zn900      Zn  0.88524490  0.49532258  0.34794171     1.49100
Zn901      Zn  0.84008158  0.46324839  0.31505321     1.49500
O902        O  0.86403842  0.49380801  0.31549641    -1.84700
O903        O  0.85691202  0.55003209  0.28779820    -0.75300
O904        O  0.92914565  0.49500044  0.29830806    -0.75100
O905        O  0.87384209  0.52840709  0.36760461    -0.74600
O906        O  0.88165360  0.52291284  0.26206546    -0.75300
O907        O  0.83625121  0.54265159  0.34784450    -0.74900
O908        O  0.92740110  0.49505966  0.34264566    -0.75500
O909        O  0.83352599  0.45114995  0.35326814    -0.74900
O910        O  0.88548516  0.45637217  0.26856755    -0.75700
O911        O  0.87183615  0.46557477  0.37174985    -0.75000
O912        O  0.85953633  0.43351170  0.29719776    -0.75500
O913        O  0.80606542  0.47022180  0.29255353    -0.75400
O914        O  0.80370764  0.51457550  0.29360165    -0.75200
C915        C  0.87144387  0.54577680  0.26729381     0.76600
C916        C  0.94127227  0.49542980  0.32094364     0.77100
C917        C  0.85338500  0.54374746  0.36687847     0.76000
C918        C  0.85012048  0.45183761  0.37283598     0.76400
C919        C  0.87592948  0.43443870  0.27770059     0.77500
C920        C  0.79443422  0.49198080  0.28566318     0.76600
Zn921      Zn  0.18938273  0.02792390  0.66316943     1.49700
Zn922      Zn  0.21562311  0.99701994  0.61228333     1.49400
Zn923      Zn  0.18443784  0.96725190  0.65986709     1.49100
Zn924      Zn  0.15424524  0.00158580  0.61503236     1.49500
O925        O  0.18601776  0.99875646  0.63720083    -1.84700
O926        O  0.21520916  0.05375040  0.64729034    -0.75300
O927        O  0.23309381  0.96101352  0.61633964    -0.75100
O928        O  0.20572890  0.97215372  0.69524827    -0.74600
O929        O  0.24002540  0.02828140  0.61994729    -0.75300
O930        O  0.20654724  0.01640880  0.69948390    -0.74900
O931        O  0.20235526  0.93803901  0.63969013    -0.75500
O932        O  0.12962437  0.97145114  0.62538704    -0.74900
O933        O  0.20462578  0.99952063  0.57186618    -0.75700
O934        O  0.14568380  0.95522013  0.66389777    -0.75000
O935        O  0.16041288  0.00205973  0.57319450    -0.75500
O936        O  0.13448923  0.03416745  0.62748362    -0.75400
O937        O  0.15370324  0.04767942  0.66578246    -0.75200
C938        C  0.23506500  0.05058800  0.63156931     0.76600
C939        C  0.22272967  0.93899149  0.62439808     0.77100
C940        C  0.21317547  0.99316150  0.70807706     0.76000
C941        C  0.12721772  0.95657440  0.64611949     0.76400
C942        C  0.18216752  0.00104734  0.55951533     0.77500
C943        C  0.13483970  0.04901168  0.64840146     0.76600
Zn944      Zn  0.21477389  0.99979022  0.38717252     1.49700
Zn945      Zn  0.18542425  0.03096540  0.34073875     1.49400
Zn946      Zn  0.18644991  0.97068826  0.33735071     1.49100
Zn947      Zn  0.15284537  0.99787711  0.38465963     1.49500
O948        O  0.18478488  0.99954771  0.36305003    -1.84700
O949        O  0.23524126  0.03407965  0.38163899    -0.75300
O950        O  0.20787339  0.02574650  0.30645227    -0.75100
O951        O  0.20817309  0.94232869  0.35453724    -0.74600
O952        O  0.20326863  0.05884966  0.36253348    -0.75300
O953        O  0.23613202  0.96643025  0.38023810    -0.74900
O954        O  0.20691118  0.98143660  0.30289477    -0.75500
O955        O  0.13181394  0.96543835  0.37221118    -0.74900
O956        O  0.14755415  0.04374407  0.33480434    -0.75700
O957        O  0.14920837  0.95466893  0.33228290    -0.75000
O958        O  0.12970560  0.02849434  0.37300372    -0.75500
O959        O  0.15942315  0.99864751  0.42657407    -0.75400
O960        O  0.20379662  0.99958445  0.42752959    -0.75200
C961        C  0.22444803  0.05667304  0.37650861     0.76600
C962        C  0.21496755  0.00429617  0.29433652     0.77100
C963        C  0.22843444  0.94423208  0.36992338     0.76000
C964        C  0.13087037  0.95229495  0.35012265     0.76400
C965        C  0.12842255  0.04293970  0.35186746     0.77500
C966        C  0.18136699  0.99938335  0.44004899     0.76600
Zn967      Zn  0.34844389  0.11461430  0.50184785     1.49700
Zn968      Zn  0.28728063  0.11074324  0.50606680     1.49400
Zn969      Zn  0.31704685  0.16090111  0.53395045     1.49100
Zn970      Zn  0.31332529  0.15983569  0.47388933     1.49500
O971        O  0.31643705  0.13603994  0.50412712    -1.84700
O972        O  0.34310568  0.07262597  0.50249155    -0.75300
O973        O  0.27151558  0.11393773  0.54297720    -0.75100
O974        O  0.35570427  0.16664810  0.54512254    -0.74600
O975        O  0.29883378  0.07076315  0.50255990    -0.75300
O976        O  0.37311912  0.12789306  0.53074291    -0.74900
O977        O  0.30005837  0.14151534  0.56428195    -0.75500
O978        O  0.29367944  0.19488051  0.48240569    -0.74900
O979        O  0.26230109  0.11781210  0.47508148    -0.75700
O980        O  0.29509125  0.19557010  0.52680233    -0.75000
O981        O  0.29043821  0.14040517  0.44834880    -0.75500
O982        O  0.34909928  0.16428558  0.45524868    -0.75400
O983        O  0.36686979  0.12528588  0.46795515    -0.75200
C984        C  0.32143603  0.05870198  0.50198171     0.76600
C985        C  0.28150715  0.12395982  0.56437977     0.77100
C986        C  0.37483819  0.14961447  0.54433967     0.76000
C987        C  0.28705286  0.20575303  0.50465106     0.76400
C988        C  0.26988990  0.12567042  0.45187673     0.77500
C989        C  0.36688667  0.14604696  0.45296175     0.76600
Zn990      Zn  0.34890634  0.88338736  0.49897204     1.49700
Zn991      Zn  0.31546934  0.83934525  0.46693188     1.49400
Zn992      Zn  0.31323460  0.83700485  0.52757452     1.49100
Zn993      Zn  0.28697242  0.88729218  0.49666174     1.49500
O994        O  0.31624372  0.86230470  0.49794818    -1.84700
O995        O  0.37255225  0.87020647  0.46877059    -0.75300
O996        O  0.29309792  0.80536750  0.47302141    -0.75100
O997        O  0.34950746  0.83356300  0.54590174    -0.74600
O998        O  0.35304976  0.83248725  0.45419815    -0.75300
O999        O  0.36865822  0.87176912  0.53201099    -0.74900
O1000       O  0.29398104  0.80119802  0.51726262    -0.75500
O1001       O  0.26432839  0.88161191  0.52950863    -0.74900
O1002       O  0.29750344  0.85943341  0.43791916    -0.75700
O1003       O  0.28980353  0.85451442  0.55450050    -0.75000
O1004       O  0.26716605  0.88203514  0.46186323    -0.75500
O1005       O  0.29916653  0.92719521  0.49746352    -0.75400
O1006       O  0.34349293  0.92554565  0.49850238    -0.75200
C1007       C  0.37290895  0.84873377  0.45465312     0.76600
C1008       C  0.28610258  0.79283200  0.49425777     0.77100
C1009       C  0.36834337  0.85105634  0.54712910     0.76000
C1010       C  0.27034276  0.87072054  0.55188879     0.76400
C1011       C  0.27675306  0.87404424  0.43949315     0.77500
C1012       C  0.32180750  0.93936244  0.49813245     0.76600
Zn1013     Zn  0.03000905  0.18284932  0.66156551     1.49700
Zn1014     Zn  0.00126929  0.14409720  0.61704220     1.49400
Zn1015     Zn  0.96890724  0.17995506  0.65909088     1.49100
Zn1016     Zn  0.00110750  0.20402863  0.60807532     1.49500
O1017       O  0.00053842  0.17777006  0.63636469    -1.84700
O1018       O  0.04937267  0.14715622  0.66577957    -0.75300
O1019       O  0.97183050  0.12127309  0.63167276    -0.75100
O1020       O  0.97477643  0.20422176  0.69226392    -0.74600
O1021       O  0.03480576  0.12565955  0.62901414    -0.75300
O1022       O  0.01898496  0.20323136  0.69689514    -0.74900
O1023       O  0.95508796  0.14237035  0.66741392    -0.75500
O1024       O  0.96464898  0.21972941  0.60668391    -0.74900
O1025       O  0.99870074  0.14601378  0.57472475    -0.75700
O1026       O  0.94055219  0.19666913  0.63688125    -0.75000
O1027       O  0.00635166  0.18936076  0.56955966    -0.75500
O1028       O  0.03113300  0.23004232  0.61466316    -0.75400
O1029       O  0.05652616  0.20647425  0.64306437    -0.75200
C1030       C  0.05056450  0.12752850  0.64918534     0.76600
C1031       C  0.95657429  0.12171441  0.65222582     0.77100
C1032       C  0.99597838  0.21157629  0.70478696     0.76000
C1033       C  0.94237021  0.21253405  0.61702836     0.76400
C1034       C  0.00271468  0.16616692  0.55927591     0.77500
C1035       C  0.05352331  0.22523520  0.62605342     0.76600
Zn1036     Zn  0.03078328  0.16412045  0.38653249     1.49700
Zn1037     Zn  0.97183806  0.16765205  0.38685665     1.49400
Zn1038     Zn  0.00634931  0.21353326  0.35653775     1.49100
Zn1039     Zn  0.00121776  0.15705255  0.32907972     1.49500
O1040       O  0.00213663  0.17578745  0.36400824    -1.84700
O1041       O  0.02320863  0.16359887  0.42748380    -0.75300
O1042       O  0.94842695  0.19916755  0.38487085    -0.75100
O1043       O  0.04052300  0.22699382  0.37266426    -0.74600
O1044       O  0.97908109  0.16082195  0.42784739    -0.75300
O1045       O  0.06139433  0.18869323  0.38180610    -0.74900
O1046       O  0.97366277  0.23276502  0.36937074    -0.75500
O1047       O  0.00287786  0.18359140  0.29592584    -0.74900
O1048       O  0.95108586  0.13841315  0.36960817    -0.75700
O1049       O  0.00920203  0.22210337  0.31739586    -0.75000
O1050       O  0.96692908  0.13437107  0.32779024    -0.75500
O1051       O  0.03220259  0.13016488  0.32919185    -0.75400
O1052       O  0.04232201  0.12884907  0.37298886    -0.75200
C1053       C  0.00131231  0.16163778  0.44063214     0.76600
C1054       C  0.95158739  0.22371146  0.37866297     0.77100
C1055       C  0.06143186  0.21407469  0.37958836     0.76000
C1056       C  0.00680014  0.20906309  0.29561190     0.76400
C1057       C  0.94989906  0.12841265  0.34606363     0.77500
C1058       C  0.04418297  0.11950994  0.34923949     0.76600
Zn1059     Zn  0.10851036  0.29112721  0.50208265     1.49700
Zn1060     Zn  0.15838910  0.31816021  0.53162653     1.49400
Zn1061     Zn  0.15969611  0.31602627  0.47051382     1.49100
Zn1062     Zn  0.11500945  0.35225003  0.49824316     1.49500
O1063       O  0.13501192  0.31931924  0.50056960    -1.84700
O1064       O  0.11490090  0.26943974  0.53534974    -0.75300
O1065       O  0.19310674  0.29658205  0.52475384    -0.75100
O1066       O  0.14223394  0.29281721  0.44362243    -0.74600
O1067       O  0.13832200  0.29865735  0.56015951    -0.75300
O1068       O  0.11230392  0.26980331  0.46805901    -0.74900
O1069       O  0.19457198  0.29637585  0.48033244    -0.75500
O1070       O  0.12652152  0.37127982  0.46494721    -0.74900
O1071       O  0.16437226  0.35599850  0.54531336    -0.75700
O1072       O  0.16450546  0.35173091  0.45176750    -0.75000
O1073       O  0.12829784  0.37583418  0.52779396    -0.75500
O1074       O  0.07323740  0.34853159  0.49940772    -0.75400
O1075       O  0.06894315  0.30464438  0.50475116    -0.75200
C1076       C  0.12328961  0.27810053  0.55795445     0.76600
C1077       C  0.20431207  0.28911638  0.50290725     0.77100
C1078       C  0.12480096  0.27438818  0.44614355     0.76000
C1079       C  0.14726317  0.37054540  0.44995328     0.76400
C1080       C  0.14866264  0.37612357  0.54332630     0.77500
C1081       C  0.05827705  0.32787660  0.50277636     0.76600
Zn1082     Zn  0.85889598  0.28202893  0.49282605     1.49700
Zn1083     Zn  0.88756381  0.33587594  0.47324111     1.49400
Zn1084     Zn  0.82791268  0.33619012  0.49951422     1.49100
Zn1085     Zn  0.88436810  0.32543246  0.53140335     1.49500
O1086       O  0.86390915  0.31962566  0.49929479    -1.84700
O1087       O  0.87559869  0.27292910  0.45764627    -0.75300
O1088       O  0.87104304  0.36985305  0.46183758    -0.75100
O1089       O  0.79580567  0.30750018  0.49765814    -0.74600
O1090       O  0.88849473  0.31255721  0.44129914    -0.75300
O1091       O  0.82017735  0.27117303  0.49037437    -0.74900
O1092       O  0.82703939  0.36305950  0.46815512    -0.75500
O1093       O  0.86708403  0.35568793  0.55114464    -0.74900
O1094       O  0.92770576  0.34021668  0.48346305    -0.75700
O1095       O  0.82601223  0.35967351  0.53327699    -0.75000
O1096       O  0.92609107  0.32904977  0.52620072    -0.75500
O1097       O  0.87948738  0.29361599  0.55391852    -0.75400
O1098       O  0.87385520  0.26107606  0.52375243    -0.75200
C1099       C  0.88520538  0.28739498  0.43882437     0.76600
C1100       C  0.84663326  0.37635184  0.45802073     0.77100
C1101       C  0.79732663  0.28215100  0.49306497     0.76000
C1102       C  0.84369811  0.36612155  0.55080050     0.76400
C1103       C  0.93987656  0.33505542  0.50537104     0.77500
C1104       C  0.87849729  0.26891512  0.54769673     0.76600
C1105       C  0.01272385  0.31572011  0.52279155    -0.13900
C1106       C  0.02807629  0.33078905  0.50432811     0.08200
C1107       C  0.01410163  0.34825746  0.48704883    -0.13900
C1108       C  0.98574095  0.34987833  0.48756097    -0.13900
C1109       C  0.97033571  0.33484649  0.50607153     0.08200
C1110       C  0.98443989  0.31805259  0.52395493    -0.13900
H1111       H  0.02266146  0.30213882  0.53649930     0.12200
H1112       H  0.02510066  0.36011926  0.47249240     0.12200
H1113       H  0.97581222  0.36292821  0.47334499     0.12200
H1114       H  0.97348886  0.30594076  0.53833594     0.12200
C1115       C  0.10333223  0.21591395  0.40587018    -0.13900
C1116       C  0.08528518  0.22878802  0.38846197     0.08200
C1117       C  0.08671772  0.25672359  0.38517393    -0.13900
C1118       C  0.10291081  0.27186316  0.40223072    -0.13900
C1119       C  0.11725084  0.25902506  0.42265930     0.08200
C1120       C  0.11886454  0.23108376  0.42339410    -0.13900
H1121       H  0.10299058  0.19432603  0.40843311     0.12200
H1122       H  0.07333919  0.26700080  0.37150150     0.12200
H1123       H  0.10174621  0.29357159  0.40154064     0.12200
H1124       H  0.13015551  0.22110295  0.43903972     0.12200
C1125       C  0.93450389  0.26979056  0.38621007    -0.13900
C1126       C  0.92959145  0.24212467  0.38463969     0.08200
C1127       C  0.90508743  0.23167747  0.39401371    -0.13900
C1128       C  0.88818286  0.24770090  0.40923504    -0.13900
C1129       C  0.89555253  0.27426871  0.41476639     0.08200
C1130       C  0.91738844  0.28591577  0.40118730    -0.13900
H1131       H  0.95296460  0.27841927  0.37853567     0.12200
H1132       H  0.90037384  0.21051377  0.39214416     0.12200
H1133       H  0.87094324  0.23858754  0.41893739     0.12200
H1134       H  0.92315735  0.30658951  0.40480474     0.12200
C1135       C  0.07670413  0.26768064  0.61472334    -0.13900
C1136       C  0.07708306  0.23966938  0.61656185     0.08200
C1137       C  0.09704948  0.22496720  0.60328749    -0.13900
C1138       C  0.11440991  0.23790579  0.58556895    -0.13900
C1139       C  0.11253692  0.26568674  0.58205258     0.08200
C1140       C  0.09482950  0.28073632  0.59787558    -0.13900
H1141       H  0.06114909  0.27914227  0.62462891     0.12200
H1142       H  0.09721433  0.20322628  0.60425730     0.12200
H1143       H  0.12777331  0.22611140  0.57315401     0.12200
H1144       H  0.09296803  0.30220597  0.59493722     0.12200
C1145       C  0.90517842  0.24444387  0.61279205    -0.13900
C1146       C  0.91824241  0.22144402  0.60378485     0.08200
C1147       C  0.91230296  0.21050925  0.57855815    -0.13900
C1148       C  0.89587052  0.22444196  0.56092495    -0.13900
C1149       C  0.88578440  0.24955250  0.56847466     0.08200
C1150       C  0.88871369  0.25842022  0.59518101    -0.13900
H1151       H  0.90979339  0.25295629  0.63228232     0.12200
H1152       H  0.92249681  0.19262817  0.57156661     0.12200
H1153       H  0.89371699  0.21710155  0.54055913     0.12200
H1154       H  0.88066696  0.27756161  0.60158065     0.12200
C1155       C  0.02102225  0.17858964  0.51335641    -0.13900
C1156       C  0.00304922  0.16323848  0.52897470     0.08200
C1157       C  0.98460170  0.14667535  0.51509722    -0.13900
C1158       C  0.98373497  0.14616518  0.48659751    -0.13900
C1159       C  0.00195850  0.16141502  0.47106208     0.08200
C1160       C  0.02082974  0.17730376  0.48503172    -0.13900
H1161       H  0.03542518  0.19166952  0.52313871     0.12200
H1162       H  0.97023448  0.13476625  0.52629014     0.12200
H1163       H  0.96889919  0.13367965  0.47669228     0.12200
H1164       H  0.03507676  0.18946626  0.47395124     0.12200
C1165       C  0.25845305  0.24073979  0.52849946    -0.13900
C1166       C  0.26848826  0.22958136  0.50449315     0.08200
C1167       C  0.25866629  0.23994033  0.48006873    -0.13900
C1168       C  0.23881896  0.25995783  0.47962336    -0.13900
C1169       C  0.22800038  0.27039734  0.50359170     0.08200
C1170       C  0.23852181  0.26079598  0.52805300    -0.13900
H1171       H  0.26535348  0.23334256  0.54771792     0.12200
H1172       H  0.26571459  0.23195691  0.46111440     0.12200
H1173       H  0.23130503  0.26662088  0.46036252     0.12200
H1174       H  0.23074454  0.26818053  0.54696156     0.12200
C1175       C  0.29807856  0.01307465  0.49946421    -0.13900
C1176       C  0.32211791  0.02813345  0.50071059     0.08200
C1177       C  0.34637215  0.01347070  0.50075535    -0.13900
C1178       C  0.34649655  0.98495593  0.49978579    -0.13900
C1179       C  0.32235679  0.96996917  0.49869627     0.08200
C1180       C  0.29820236  0.98473068  0.49846554    -0.13900
H1181       H  0.27891027  0.02322932  0.49930749     0.12200
H1182       H  0.36537888  0.02405293  0.50164903     0.12200
H1183       H  0.36556875  0.97463519  0.49999492     0.12200
H1184       H  0.27909193  0.97432516  0.49761770     0.12200
C1185       C  0.26231252  0.08590046  0.38938298    -0.13900
C1186       C  0.23486020  0.08026523  0.39001929     0.08200
C1187       C  0.21805701  0.09356226  0.40826185    -0.13900
C1188       C  0.22912562  0.11029083  0.42775859    -0.13900
C1189       C  0.25686724  0.11454305  0.42824124     0.08200
C1190       C  0.27321282  0.10350861  0.40811663    -0.13900
H1191       H  0.27542773  0.07542668  0.37559063     0.12200
H1192       H  0.19680407  0.08891942  0.40911392     0.12200
H1193       H  0.21638969  0.11855503  0.44330219     0.12200
H1194       H  0.29478591  0.10637594  0.40850543     0.12200
C1195       C  0.22540458  0.90111994  0.39298413    -0.13900
C1196       C  0.24129114  0.91983001  0.37914162     0.08200
C1197       C  0.26928133  0.91859963  0.38076209    -0.13900
C1198       C  0.28121563  0.90049356  0.39831019    -0.13900
C1199       C  0.26508017  0.88448587  0.41495652     0.08200
C1200       C  0.23726394  0.88383953  0.41137178    -0.13900
H1201       H  0.20370192  0.90215850  0.39210693     0.12200
H1202       H  0.28166815  0.93314532  0.37032168     0.12200
H1203       H  0.30276348  0.90127218  0.40115244     0.12200
H1204       H  0.22468028  0.87163533  0.42427155     0.12200
C1205       C  0.10208067  0.07736698  0.32606478    -0.13900
C1206       C  0.10428580  0.05954228  0.34786424     0.08200
C1207       C  0.08382325  0.05889898  0.36725069    -0.13900
C1208       C  0.06289566  0.07717374  0.36621882    -0.13900
C1209       C  0.06178186  0.09630406  0.34566137     0.08200
C1210       C  0.08079893  0.09562447  0.32491379    -0.13900
H1211       H  0.11742756  0.07810839  0.31068900     0.12200
H1212       H  0.08462516  0.04517104  0.38408423     0.12200
H1213       H  0.04831053  0.07733774  0.38236349     0.12200
H1214       H  0.08034263  0.11043575  0.30900656     0.12200
C1215       C  0.27736980  0.07089424  0.61530770    -0.13900
C1216       C  0.25077850  0.07409471  0.62376925     0.08200
C1217       C  0.23712408  0.09806884  0.61810017    -0.13900
C1218       C  0.24840539  0.11669598  0.60051661    -0.13900
C1219       C  0.27374557  0.11181270  0.58962922     0.08200
C1220       C  0.28893694  0.08993851  0.59847590    -0.13900
H1221       H  0.28815188  0.05253872  0.61952318     0.12200
H1222       H  0.21648213  0.10078390  0.62437049     0.12200
H1223       H  0.23648196  0.13340867  0.59351428     0.12200
H1224       H  0.30851291  0.08594256  0.58986788     0.12200
C1225       C  0.25998854  0.90780493  0.61537197    -0.13900
C1226       C  0.23283038  0.91425297  0.61288113     0.08200
C1227       C  0.21679360  0.90109442  0.59382341    -0.13900
C1228       C  0.22861998  0.88423146  0.57496985    -0.13900
C1229       C  0.25631092  0.87977319  0.57584941     0.08200
C1230       C  0.27161549  0.89007025  0.59718407    -0.13900
H1231       H  0.27253690  0.91813559  0.62985073     0.12200
H1232       H  0.19580887  0.90627745  0.59156495     0.12200
H1233       H  0.21667238  0.87652093  0.55849408     0.12200
H1234       H  0.29312609  0.88700101  0.59788921     0.12200
C1235       C  0.08811036  0.06297810  0.63864854    -0.13900
C1236       C  0.11243402  0.06800696  0.65198286     0.08200
C1237       C  0.11531001  0.09177531  0.66696831    -0.13900
C1238       C  0.09467856  0.11087990  0.66722253    -0.13900
C1239       C  0.07096747  0.10635332  0.65255184     0.08200
C1240       C  0.06765288  0.08187136  0.63894480    -0.13900
H1241       H  0.08509347  0.04461145  0.62735379     0.12200
H1242       H  0.13386281  0.09608943  0.67745548     0.12200
H1243       H  0.09774158  0.12961001  0.67786791     0.12200
H1244       H  0.04945960  0.07757797  0.62781326     0.12200
C1245       C  0.20562695  0.00051131  0.51381721    -0.13900
C1246       C  0.18161434  0.00126415  0.52888874     0.08200
C1247       C  0.15734044  0.00168595  0.51418538    -0.13900
C1248       C  0.15712834  0.00109826  0.48567877    -0.13900
C1249       C  0.18118618  0.00012088  0.47066634     0.08200
C1250       C  0.20541753  0.99998996  0.48541589    -0.13900
H1251       H  0.22481484  0.00019709  0.52400998     0.12200
H1252       H  0.13835525  0.00228806  0.52474290     0.12200
H1253       H  0.13800470  0.00136174  0.47537457     0.12200
H1254       H  0.22447021  0.99935004  0.47497064     0.12200
C1255       C  0.86228477  0.43838454  0.41930182    -0.13900
C1256       C  0.84487712  0.43582878  0.39727961     0.08200
C1257       C  0.82424014  0.41644692  0.39823505    -0.13900
C1258       C  0.82280306  0.39829241  0.41970877    -0.13900
C1259       C  0.84203716  0.39938949  0.44025820     0.08200
C1260       C  0.86090958  0.42033038  0.44049072    -0.13900
H1261       H  0.87803389  0.45343349  0.41953819     0.12200
H1262       H  0.81031800  0.41424104  0.38168152     0.12200
H1263       H  0.80816649  0.38216572  0.41911386     0.12200
H1264       H  0.87580704  0.42166649  0.45629383     0.12200
C1265       C  0.16825351  0.40839884  0.38724477    -0.13900
C1266       C  0.15101342  0.43062186  0.38854221     0.08200
C1267       C  0.13471449  0.43401424  0.41129381    -0.13900
C1268       C  0.13449449  0.41497181  0.43161608    -0.13900
C1269       C  0.15057017  0.39198603  0.42979229     0.08200
C1270       C  0.16803070  0.38915464  0.40778128    -0.13900
H1271       H  0.18109169  0.40537641  0.36996299     0.12200
H1272       H  0.12154274  0.45115941  0.41317446     0.12200
H1273       H  0.12112482  0.41798627  0.44850286     0.12200
H1274       H  0.18067646  0.37162947  0.40593210     0.12200
C1275       C  0.01532745  0.49853179  0.34547897    -0.13900
C1276       C  0.03007158  0.49735507  0.32122853     0.08200
C1277       C  0.01506217  0.49572018  0.29722834    -0.13900
C1278       C  0.98672046  0.49518235  0.29735908    -0.13900
C1279       C  0.97187638  0.49623068  0.32149768     0.08200
C1280       C  0.98679319  0.49795689  0.34561187    -0.13900
H1281       H  0.02585400  0.49988404  0.36444991     0.12200
H1282       H  0.02526925  0.49480255  0.27805304     0.12200
H1283       H  0.97638216  0.49384655  0.27828158     0.12200
H1284       H  0.97640203  0.49887706  0.36468384     0.12200
C1285       C  0.08671308  0.38501574  0.26058703    -0.13900
C1286       C  0.08208402  0.38523240  0.23293242     0.08200
C1287       C  0.09701041  0.40229227  0.21617464    -0.13900
C1288       C  0.11431640  0.42123220  0.22737836    -0.13900
C1289       C  0.11752208  0.42228266  0.25524172     0.08200
C1290       C  0.10490877  0.40313333  0.27166797    -0.13900
H1291       H  0.07499496  0.37215593  0.27366999     0.12200
H1292       H  0.09318963  0.40284191  0.19476697     0.12200
H1293       H  0.12373230  0.43611552  0.21458872     0.12200
H1294       H  0.10693040  0.40406162  0.29331442     0.12200
C1295       C  0.90075458  0.38469719  0.22824238    -0.13900
C1296       C  0.92322574  0.37545683  0.24242055     0.08200
C1297       C  0.92576744  0.38081403  0.26988652    -0.13900
C1298       C  0.90744795  0.39761327  0.28246493    -0.13900
C1299       C  0.88707229  0.40967110  0.26741151     0.08200
C1300       C  0.88294293  0.40231328  0.24062233    -0.13900
H1301       H  0.89883328  0.38099810  0.20688312     0.12200
H1302       H  0.94319703  0.37401702  0.28092454     0.12200
H1303       H  0.91101341  0.40360877  0.30308831     0.12200
H1304       H  0.86747967  0.41191869  0.22879052     0.12200
C1305       C  0.98610270  0.24591793  0.23174654    -0.13900
C1306       C  0.00692920  0.26503544  0.22913188     0.08200
C1307       C  0.02910297  0.26284551  0.24652158    -0.13900
C1308       C  0.02966676  0.24340855  0.26691619    -0.13900
C1309       C  0.00850955  0.22492102  0.27017287     0.08200
C1310       C  0.98703205  0.22589493  0.25184376    -0.13900
H1311       H  0.96867289  0.24697945  0.21881735     0.12200
H1312       H  0.04541922  0.27722430  0.24542120     0.12200
H1313       H  0.04626882  0.24351280  0.28096391     0.12200
H1314       H  0.97015616  0.21235026  0.25416770     0.12200
C1315       C  0.09701092  0.61244686  0.23673486    -0.13900
C1316       C  0.07086580  0.61434879  0.24738100     0.08200
C1317       C  0.06561579  0.60436067  0.27311945    -0.13900
C1318       C  0.08487538  0.58869014  0.28588220    -0.13900
C1319       C  0.10925015  0.58315892  0.27294818     0.08200
C1320       C  0.11601518  0.59637674  0.24924644    -0.13900
H1321       H  0.10169539  0.62053206  0.21708615     0.12200
H1322       H  0.04572829  0.60568792  0.28177754     0.12200
H1323       H  0.07953409  0.57832772  0.30426057     0.12200
H1324       H  0.13476421  0.59212623  0.23912098     0.12200
C1325       C  0.90778219  0.60750718  0.24856759    -0.13900
C1326       C  0.91418360  0.60109405  0.22191912     0.08200
C1327       C  0.89983891  0.58070867  0.20858723    -0.13900
C1328       C  0.88271617  0.56407010  0.22296001    -0.13900
C1329       C  0.87924600  0.56826177  0.25047734     0.08200
C1330       C  0.88998079  0.59124647  0.26277091    -0.13900
H1331       H  0.91830710  0.62343610  0.25904097     0.12200
H1332       H  0.90416223  0.57555198  0.18789612     0.12200
H1333       H  0.87434934  0.54644547  0.21326618     0.12200
H1334       H  0.88736318  0.59467735  0.28410312     0.12200
C1335       C  0.01762207  0.50970691  0.18685955    -0.13900
C1336       C  0.00263415  0.52335836  0.16714211     0.08200
C1337       C  0.98701341  0.50761705  0.14942985    -0.13900
C1338       C  0.98683043  0.47923204  0.15109327    -0.13900
C1339       C  0.00146446  0.46565619  0.17115238     0.08200
C1340       C  0.01670481  0.48144832  0.18910418    -0.13900
H1341       H  0.02969010  0.52098558  0.20104920     0.12200
H1342       H  0.97511564  0.51726726  0.13405256     0.12200
H1343       H  0.97474507  0.46788637  0.13697433     0.12200
H1344       H  0.02827193  0.47187225  0.20478327     0.12200
C1345       C  0.26798987  0.48144785  0.23960744    -0.13900
C1346       C  0.27089675  0.50401533  0.22279443     0.08200
C1347       C  0.25461120  0.52645646  0.22810348    -0.13900
C1348       C  0.23545011  0.52614016  0.24887640    -0.13900
C1349       C  0.23125635  0.50305727  0.26469691     0.08200
C1350       C  0.24822730  0.48085238  0.26005318    -0.13900
H1351       H  0.27987203  0.46366861  0.23591645     0.12200
H1352       H  0.25613411  0.54412418  0.21552574     0.12200
H1353       H  0.22289291  0.54362620  0.25159180     0.12200
H1354       H  0.24570495  0.46268610  0.27171630     0.12200
C1355       C  0.35040223  0.50320849  0.00622611    -0.13900
C1356       C  0.33242137  0.48832923  0.02239527     0.08200
C1357       C  0.31235363  0.47337443  0.00892185    -0.13900
C1358       C  0.30986738  0.47391747  0.98059146    -0.13900
C1359       C  0.32781405  0.48881444  0.96446317     0.08200
C1360       C  0.34839189  0.50311139  0.97782497    -0.13900
H1361       H  0.36611139  0.51504077  0.01556426     0.12200
H1362       H  0.29798787  0.46172413  0.02038331     0.12200
H1363       H  0.29383435  0.46252233  0.97124729     0.12200
H1364       H  0.36258674  0.51490759  0.96629581     0.12200
C1365       C  0.24509057  0.60973726  0.08634804    -0.13900
C1366       C  0.25371586  0.61498127  0.05999163     0.08200
C1367       C  0.28042618  0.60982178  0.05290760    -0.13900
C1368       C  0.29675204  0.59535067  0.07040714    -0.13900
C1369       C  0.28623162  0.58584900  0.09483636     0.08200
C1370       C  0.26125293  0.59512374  0.10366995    -0.13900
H1371       H  0.22482027  0.61440143  0.09262133     0.12200
H1372       H  0.28769864  0.61419254  0.03287548     0.12200
H1373       H  0.31620207  0.58876951  0.06333868     0.12200
H1374       H  0.25302499  0.58861101  0.12273917     0.12200
C1375       C  0.25124688  0.61069991  0.90110119    -0.13900
C1376       C  0.22425750  0.60539706  0.90716178     0.08200
C1377       C  0.21099743  0.58388961  0.89450073    -0.13900
C1378       C  0.22552386  0.56553766  0.87941626    -0.13900
C1379       C  0.25312687  0.56919008  0.87601410     0.08200
C1380       C  0.26559880  0.59273409  0.88520276    -0.13900
H1381       H  0.26173810  0.62728338  0.91052252     0.12200
H1382       H  0.19013570  0.57939174  0.89880743     0.12200
H1383       H  0.21571378  0.54746991  0.87223918     0.12200
H1384       H  0.28700616  0.59571503  0.88262206     0.12200
C1385       C  0.11459636  0.62711608  0.08964969    -0.13900
C1386       C  0.11603203  0.64866997  0.07152278     0.08200
C1387       C  0.09761213  0.66984041  0.07409179    -0.13900
C1388       C  0.07750095  0.66880781  0.09387298    -0.13900
C1389       C  0.07560475  0.64656452  0.11119212     0.08200
C1390       C  0.09471337  0.62605566  0.10908825    -0.13900
H1391       H  0.12861666  0.61058101  0.08857438     0.12200
H1392       H  0.09826146  0.68669636  0.06039895     0.12200
H1393       H  0.06308422  0.68496423  0.09514473     0.12200
H1394       H  0.09419114  0.60881274  0.12231918     0.12200
C1395       C  0.21566196  0.43268675  0.07055510    -0.13900
C1396       C  0.22108885  0.40516152  0.07213980     0.08200
C1397       C  0.23413293  0.39456232  0.09453308    -0.13900
C1398       C  0.24548588  0.41210204  0.11315950    -0.13900
C1399       C  0.24333015  0.43999098  0.10933606     0.08200
C1400       C  0.22637198  0.45008596  0.08943768    -0.13900
H1401       H  0.20468056  0.44088173  0.05366709     0.12200
H1402       H  0.23770616  0.37319397  0.09619873     0.12200
H1403       H  0.25844766  0.40408837  0.12864123     0.12200
H1404       H  0.22446532  0.47150006  0.08618467     0.12200
C1405       C  0.26384153  0.37839189  0.91275250    -0.13900
C1406       C  0.23580723  0.37874245  0.91425580     0.08200
C1407       C  0.22088552  0.39292588  0.89513643    -0.13900
C1408       C  0.23396865  0.40952014  0.87683199    -0.13900
C1409       C  0.26201564  0.41113615  0.87700339     0.08200
C1410       C  0.27693787  0.39415751  0.89368635    -0.13900
H1411       H  0.27550656  0.36777269  0.92765844     0.12200
H1412       H  0.19917653  0.39368179  0.89644325     0.12200
H1413       H  0.22227817  0.42289928  0.86436679     0.12200
H1414       H  0.29863986  0.39565863  0.89432538     0.12200
C1415       C  0.06051118  0.35871188  0.07992528    -0.13900
C1416       C  0.06464996  0.34394127  0.10351215     0.08200
C1417       C  0.08801747  0.32842079  0.10607544    -0.13900
C1418       C  0.10775228  0.32918805  0.08610307    -0.13900
C1419       C  0.10429495  0.34546658  0.06336819     0.08200
C1420       C  0.08009613  0.35944749  0.06007448    -0.13900
H1421       H  0.04255026  0.37058964  0.07722833     0.12200
H1422       H  0.09169184  0.31685511  0.12409588     0.12200
H1423       H  0.12621906  0.31820588  0.08910924     0.12200
H1424       H  0.07667708  0.37186470  0.04257155     0.12200
C1425       C  0.15309364  0.48498129  0.01165149    -0.13900
C1426       C  0.16453778  0.47111448  0.98977829     0.08200
C1427       C  0.17488208  0.48660922  0.96844815    -0.13900
C1428       C  0.17373967  0.51496213  0.96891543    -0.13900
C1429       C  0.16322204  0.52885733  0.99122784     0.08200
C1430       C  0.15292508  0.51337623  0.01260045    -0.13900
H1431       H  0.14518883  0.47383221  0.02856906     0.12200
H1432       H  0.18394972  0.47674161  0.95133612     0.12200
H1433       H  0.18204944  0.52609666  0.95217659     0.12200
H1434       H  0.14472127  0.52327409  0.03012734     0.12200
C1435       C  0.44305245  0.42520562  0.85290904    -0.13900
C1436       C  0.44306358  0.40254646  0.83623827     0.08200
C1437       C  0.42225099  0.39908609  0.81750974    -0.13900
C1438       C  0.40015052  0.41647857  0.81772442    -0.13900
C1439       C  0.39888484  0.43748969  0.83658457     0.08200
C1440       C  0.42130052  0.44255539  0.85299063    -0.13900
H1441       H  0.45901364  0.42838681  0.86735581     0.12200
H1442       H  0.42185815  0.38162328  0.80452665     0.12200
H1443       H  0.38334728  0.41234565  0.80455922     0.12200
H1444       H  0.42135977  0.45896385  0.86728963     0.12200
C1445       C  0.41575662  0.39181681  0.17021727    -0.13900
C1446       C  0.42866151  0.38408553  0.14634615     0.08200
C1447       C  0.42002165  0.39491547  0.12185559    -0.13900
C1448       C  0.39897585  0.41302545  0.12103280    -0.13900
C1449       C  0.38619108  0.42120005  0.14473620     0.08200
C1450       C  0.39481240  0.41060151  0.16944373    -0.13900
H1451       H  0.42214256  0.38374321  0.18933904     0.12200
H1452       H  0.42943387  0.38918814  0.10309345     0.12200
H1453       H  0.39302231  0.42101411  0.10172328     0.12200
H1454       H  0.38527747  0.41668095  0.18801993     0.12200
C1455       C  0.51910349  0.31390844  0.98395813    -0.13900
C1456       C  0.50435732  0.33407433  0.97067881     0.08200
C1457       C  0.48968726  0.35206014  0.98695957    -0.13900
C1458       C  0.49015075  0.35016310  0.01538536    -0.13900
C1459       C  0.50455946  0.32966732  0.02855374     0.08200
C1460       C  0.51888097  0.31150986  0.01224621    -0.13900
H1461       H  0.53047547  0.29947377  0.97237475     0.12200
H1462       H  0.47794117  0.36777484  0.97770766     0.12200
H1463       H  0.47871093  0.36444809  0.02708739     0.12200
H1464       H  0.53025421  0.29548298  0.02144136     0.12200
C1465       C  0.42036770  0.20847180  0.09649491    -0.13900
C1466       C  0.39733929  0.22120230  0.08644951     0.08200
C1467       C  0.39045124  0.24679992  0.09580213    -0.13900
C1468       C  0.40808766  0.26074821  0.11252924    -0.13900
C1469       C  0.43295827  0.24939069  0.11914059     0.08200
C1470       C  0.43833438  0.22270339  0.11241613    -0.13900
H1471       H  0.42607602  0.18867952  0.08959564     0.12200
H1472       H  0.37263854  0.25680904  0.08843296     0.12200
H1473       H  0.40371185  0.28140977  0.11762233     0.12200
H1474       H  0.45743906  0.21368677  0.11750965     0.12200
C1475       C  0.38643580  0.28249624  0.94282444    -0.13900
C1476       C  0.37929972  0.25636102  0.93524353     0.08200
C1477       C  0.38241922  0.24825243  0.90838065    -0.13900
C1478       C  0.39783207  0.26366597  0.89101144    -0.13900
C1479       C  0.40929171  0.28756738  0.90027311     0.08200
C1480       C  0.40136025  0.29824495  0.92517083    -0.13900
H1481       H  0.38370298  0.28933822  0.96329658     0.12200
H1482       H  0.37605726  0.22846844  0.90186024     0.12200
H1483       H  0.40323301  0.25553908  0.87156841     0.12200
H1484       H  0.40977516  0.31696999  0.93247027     0.12200
C1485       C  0.26763022  0.25158790  0.02535098    -0.13900
C1486       C  0.27114302  0.23271723  0.00458816     0.08200
C1487       C  0.25300810  0.23344015  0.98286487    -0.13900
C1488       C  0.23287919  0.25341736  0.98140375    -0.13900
C1489       C  0.22999827  0.27280674  0.00191916     0.08200
C1490       C  0.24732948  0.27102040  0.02419222    -0.13900
H1491       H  0.28123888  0.25184848  0.04231095     0.12200
H1492       H  0.25532211  0.21953888  0.96631397     0.12200
H1493       H  0.21999875  0.25407461  0.96391418     0.12200
H1494       H  0.24602193  0.28549035  0.04037542     0.12200
C1495       C  0.61174362  0.27023127  0.06593112    -0.13900
C1496       C  0.61686485  0.24297150  0.07033003     0.08200
C1497       C  0.61274334  0.23203262  0.09609817    -0.13900
C1498       C  0.59899757  0.24663927  0.11547173    -0.13900
C1499       C  0.59017463  0.27246301  0.10942384     0.08200
C1500       C  0.59839348  0.28498918  0.08556980    -0.13900
H1501       H  0.61508554  0.27919948  0.04641133     0.12200
H1502       H  0.61726982  0.21118823  0.10026208     0.12200
H1503       H  0.59256574  0.23674459  0.13374746     0.12200
H1504       H  0.59135916  0.30495406  0.08067456     0.12200
C1505       C  0.57218966  0.20688474  0.90626615    -0.13900
C1506       C  0.59675079  0.21773246  0.91502611     0.08200
C1507       C  0.60555928  0.24243340  0.90516227    -0.13900
C1508       C  0.58857312  0.25764108  0.88923494    -0.13900
C1509       C  0.56219751  0.24873181  0.88408594     0.08200
C1510       C  0.55479112  0.22246916  0.89097644    -0.13900
H1511       H  0.56520221  0.18763798  0.91367937     0.12200
H1512       H  0.62465887  0.25079631  0.91142680     0.12200
H1513       H  0.59514960  0.27757874  0.88348937     0.12200
H1514       H  0.53476476  0.21499102  0.88689485     0.12200
C1515       C  0.51183980  0.15633702  0.02350989    -0.13900
C1516       C  0.52757536  0.15700944  0.99996916     0.08200
C1517       C  0.51380197  0.15891437  0.97524078    -0.13900
C1518       C  0.48550320  0.16072851  0.97411433    -0.13900
C1519       C  0.46977439  0.16019027  0.99765212     0.08200
C1520       C  0.48350121  0.15762280  0.02235010    -0.13900
H1521       H  0.52146327  0.15498308  0.04294776     0.12200
H1522       H  0.52499945  0.15973929  0.95661696     0.12200
H1523       H  0.47592140  0.16267392  0.95470844     0.12200
H1524       H  0.47231826  0.15723828  0.04099751     0.12200
C1525       C  0.41640986  0.82184151  0.39843307    -0.13900
C1526       C  0.43767305  0.84031231  0.39918339     0.08200
C1527       C  0.43954311  0.85854788  0.42056737    -0.13900
C1528       C  0.41927206  0.85996723  0.43969729    -0.13900
C1529       C  0.39657921  0.84332005  0.43764949     0.08200
C1530       C  0.39588527  0.82335567  0.41759230    -0.13900
H1531       H  0.41453536  0.80782137  0.38188405     0.12200
H1532       H  0.45590593  0.87291520  0.42147068     0.12200
H1533       H  0.42067905  0.87520335  0.45517710     0.12200
H1534       H  0.37872846  0.81009014  0.41566464     0.12200
C1535       C  0.41241309  0.17251149  0.39752588    -0.13900
C1536       C  0.42636917  0.14898800  0.39080681     0.08200
C1537       C  0.42144303  0.12541458  0.40540451    -0.13900
C1538       C  0.40257698  0.12496095  0.42579986    -0.13900
C1539       C  0.38782845  0.14802841  0.43212196     0.08200
C1540       C  0.39298047  0.17196559  0.41796789    -0.13900
H1541       H  0.41598122  0.19094845  0.38656146     0.12200
H1542       H  0.43217975  0.10706181  0.40097228     0.12200
H1543       H  0.39918352  0.10618427  0.43624375     0.12200
H1544       H  0.38194523  0.19007709  0.42257877     0.12200
C1545       C  0.48604258  0.24489488  0.26772802    -0.13900
C1546       C  0.50763498  0.22695225  0.27055589     0.08200
C1547       C  0.53020789  0.23091554  0.25392855    -0.13900
C1548       C  0.53089757  0.25149160  0.23452820    -0.13900
C1549       C  0.50868314  0.26841891  0.23043626     0.08200
C1550       C  0.48641877  0.26510091  0.24774037    -0.13900
H1551       H  0.46817054  0.24225333  0.27982247     0.12200
H1552       H  0.54712380  0.21740377  0.25534220     0.12200
H1553       H  0.54834451  0.25313007  0.22165797     0.12200
H1554       H  0.46887841  0.27761306  0.24527194     0.12200
C1555       C  0.52139921  0.01319475  0.34272204    -0.13900
C1556       C  0.49716221  0.02737431  0.33896532     0.08200
C1557       C  0.47368733  0.01195958  0.33500405    -0.13900
C1558       C  0.47441133  0.98360153  0.33469222    -0.13900
C1559       C  0.49868050  0.96940004  0.33789976     0.08200
C1560       C  0.52219118  0.98476904  0.34197753    -0.13900
H1561       H  0.53999867  0.02412438  0.34572619     0.12200
H1562       H  0.45462709  0.02184649  0.33197086     0.12200
H1563       H  0.45582997  0.97273596  0.33135937     0.12200
H1564       H  0.54128006  0.97481091  0.34456513     0.12200
C1565       C  0.41808994  0.09688868  0.20851658    -0.13900
C1566       C  0.39260944  0.09164700  0.21932650     0.08200
C1567       C  0.38508706  0.10313607  0.24371635    -0.13900
C1568       C  0.40421489  0.11663226  0.25900011    -0.13900
C1569       C  0.43101378  0.11809291  0.25011698     0.08200
C1570       C  0.43735379  0.11014900  0.22390465    -0.13900
H1571       H  0.42413667  0.08767692  0.18974759     0.12200
H1572       H  0.36555501  0.09892361  0.25232709     0.12200
H1573       H  0.39875391  0.12319345  0.27900668     0.12200
H1574       H  0.45779913  0.11120615  0.21658604     0.12200
C1575       C  0.38633380  0.93631050  0.26788197    -0.13900
C1576       C  0.38415685  0.93316698  0.24010556     0.08200
C1577       C  0.39525660  0.91066959  0.22740930    -0.13900
C1578       C  0.41148196  0.89325501  0.24194644    -0.13900
C1579       C  0.41590650  0.89793119  0.26933532     0.08200
C1580       C  0.40179623  0.91845235  0.28256305    -0.13900
H1581       H  0.37772205  0.95361171  0.27782678     0.12200
H1582       H  0.39369161  0.90815704  0.20584997     0.12200
H1583       H  0.42203182  0.87741130  0.23148471     0.12200
H1584       H  0.40484776  0.92241110  0.30374097     0.12200
C1585       C  0.32025220  0.08258996  0.09475221    -0.13900
C1586       C  0.33960752  0.06208928  0.09422535     0.08200
C1587       C  0.35472549  0.05812969  0.07076781    -0.13900
C1588       C  0.35291791  0.07618508  0.04959741    -0.13900
C1589       C  0.33584163  0.09839479  0.05140119     0.08200
C1590       C  0.31838359  0.10071246  0.07334616    -0.13900
H1591       H  0.30813974  0.08591591  0.11247519     0.12200
H1592       H  0.36940064  0.04217678  0.06947950     0.12200
H1593       H  0.36659115  0.07416210  0.03280996     0.12200
H1594       H  0.30534135  0.11797689  0.07519926     0.12200
C1595       C  0.26220771  0.98331525  0.23743776    -0.13900
C1596       C  0.27403232  0.00784151  0.22954309     0.08200
C1597       C  0.26503149  0.03144888  0.24224314    -0.13900
C1598       C  0.24532550  0.03044849  0.26256767    -0.13900
C1599       C  0.23394813  0.00580832  0.27083807     0.08200
C1600       C  0.24254351  0.98232022  0.25768625    -0.13900
H1601       H  0.26858198  0.96464598  0.22834625     0.12200
H1602       H  0.27374183  0.05069281  0.23699267     0.12200
H1603       H  0.23949521  0.04897978  0.27228943     0.12200
H1604       H  0.23450669  0.96294057  0.26347108     0.12200
C1605       C  0.61019054  0.06028293  0.27724331    -0.13900
C1606       C  0.61520208  0.06684206  0.25035466     0.08200
C1607       C  0.60894694  0.09273386  0.24098059    -0.13900
C1608       C  0.59352270  0.10982673  0.25660592    -0.13900
C1609       C  0.58498418  0.10147228  0.28196895     0.08200
C1610       C  0.59524742  0.07773456  0.29313813    -0.13900
H1611       H  0.61525025  0.04067110  0.28508277     0.12200
H1612       H  0.61336068  0.09868893  0.22053221     0.12200
H1613       H  0.58618899  0.12834782  0.24794464     0.12200
H1614       H  0.58900110  0.07109794  0.31289556     0.12200
C1615       C  0.61125162  0.90667527  0.24811317    -0.13900
C1616       C  0.60348266  0.91246952  0.22172882     0.08200
C1617       C  0.58204720  0.89825955  0.21008785    -0.13900
C1618       C  0.56548212  0.88250405  0.22620337    -0.13900
C1619       C  0.57048309  0.88090307  0.25387337     0.08200
C1620       C  0.59489581  0.89071332  0.26411992    -0.13900
H1621       H  0.62830137  0.91674847  0.25720146     0.12200
H1622       H  0.57608023  0.90192587  0.18951214     0.12200
H1623       H  0.54718457  0.87437941  0.21763716     0.12200
H1624       H  0.59976886  0.88886137  0.28522545     0.12200
C1625       C  0.64587563  0.09890845  0.11982242    -0.13900
C1626       C  0.65913665  0.07448278  0.11577942     0.08200
C1627       C  0.67389928  0.07040217  0.09209725    -0.13900
C1628       C  0.67343046  0.08983213  0.07173655    -0.13900
C1629       C  0.65815433  0.11323487  0.07512172     0.08200
C1630       C  0.64534047  0.11806799  0.09966165    -0.13900
H1631       H  0.63469265  0.10259046  0.13811350     0.12200
H1632       H  0.68414593  0.05156932  0.08862179     0.12200
H1633       H  0.68337033  0.08581048  0.05282304     0.12200
H1634       H  0.63378910  0.13620741  0.10275584     0.12200
C1635       C  0.51499644  0.02410890  0.17833224    -0.13900
C1636       C  0.52874386  0.00633017  0.16111131     0.08200
C1637       C  0.51297209  0.98933943  0.14468601    -0.13900
C1638       C  0.48454163  0.99018394  0.14547336    -0.13900
C1639       C  0.47092905  0.00735614  0.16339249     0.08200
C1640       C  0.48669128  0.02428769  0.17977138    -0.13900
H1641       H  0.52620193  0.03741050  0.19143264     0.12200
H1642       H  0.52263807  0.97532359  0.13119632     0.12200
H1643       H  0.47318072  0.97674312  0.13265410     0.12200
H1644       H  0.47704619  0.03782831  0.19377111     0.12200
C1645       C  0.60373027  0.82475012  0.41117620    -0.13900
C1646       C  0.60143225  0.84292346  0.43272651     0.08200
C1647       C  0.57796395  0.85828628  0.43517673    -0.13900
C1648       C  0.55839231  0.85735647  0.41529576    -0.13900
C1649       C  0.56164198  0.84072517  0.39286332     0.08200
C1650       C  0.58383689  0.82361989  0.39133026    -0.13900
H1651       H  0.62149370  0.81251591  0.40888338     0.12200
H1652       H  0.57530615  0.87214067  0.45174322     0.12200
H1653       H  0.54126420  0.87062188  0.41675108     0.12200
H1654       H  0.58666629  0.81082103  0.37396472     0.12200
C1655       C  0.59088850  0.18138983  0.42445055    -0.13900
C1656       C  0.59170484  0.16119072  0.44406797     0.08200
C1657       C  0.57016629  0.14320593  0.44647136    -0.13900
C1658       C  0.54955604  0.14337409  0.42769858    -0.13900
C1659       C  0.55024604  0.16145030  0.40614857     0.08200
C1660       C  0.57012016  0.18151345  0.40544213    -0.13900
H1661       H  0.60748801  0.19532054  0.42226236     0.12200
H1662       H  0.57039453  0.12762680  0.46164842     0.12200
H1663       H  0.53428918  0.12784693  0.42867077     0.12200
H1664       H  0.57108675  0.19546411  0.38879843     0.12200
C1665       C  0.77609157  0.23983716  0.47596121    -0.13900
C1666       C  0.77309788  0.26395345  0.49039176     0.08200
C1667       C  0.74821417  0.26831004  0.50332227    -0.13900
C1668       C  0.72763864  0.24835289  0.50280703    -0.13900
C1669       C  0.73148992  0.22368585  0.48925936     0.08200
C1670       C  0.75586382  0.22030991  0.47535049    -0.13900
H1671       H  0.79463306  0.23561565  0.46543628     0.12200
H1672       H  0.74510327  0.28652256  0.51475928     0.12200
H1673       H  0.70928485  0.25174966  0.51391200     0.12200
H1674       H  0.75980402  0.20193844  0.46440841     0.12200
C1675       C  0.64721653  0.01119425  0.51597879    -0.13900
C1676       C  0.65635802  0.02717738  0.49441356     0.08200
C1677       C  0.66670945  0.01360336  0.47176547    -0.13900
C1678       C  0.66877851  0.98527244  0.47112010    -0.13900
C1679       C  0.65958532  0.96930514  0.49263292     0.08200
C1680       C  0.64835346  0.98276912  0.51489199    -0.13900
H1681       H  0.63922502  0.02070620  0.53381143     0.12200
H1682       H  0.67420525  0.02500565  0.45482341     0.12200
H1683       H  0.67770842  0.97579065  0.45371631     0.12200
H1684       H  0.64138148  0.97130149  0.53200325     0.12200
C1685       C  0.72770378  0.05839338  0.38859154    -0.13900
C1686       C  0.75530711  0.06353002  0.38654543     0.08200
C1687       C  0.76564341  0.08831900  0.39541639    -0.13900
C1688       C  0.74946642  0.10589266  0.40965648    -0.13900
C1689       C  0.72267449  0.09917191  0.41457745     0.08200
C1690       C  0.71136314  0.07630361  0.40247296    -0.13900
H1691       H  0.71920775  0.03960007  0.38159203     0.12200
H1692       H  0.78676942  0.09313919  0.39348048     0.12200
H1693       H  0.75838334  0.12362856  0.41864410     0.12200
H1694       H  0.69062734  0.07081605  0.40615927     0.12200
C1695       C  0.78774177  0.89466819  0.41120561    -0.13900
C1696       C  0.77616343  0.90880669  0.38979870     0.08200
C1697       C  0.74931056  0.90400480  0.38280373    -0.13900
C1698       C  0.73326814  0.88816808  0.39934827    -0.13900
C1699       C  0.74397231  0.87776129  0.42315337     0.08200
C1700       C  0.77152956  0.87955324  0.42816450    -0.13900
H1701       H  0.80848403  0.89797336  0.41685898     0.12200
H1702       H  0.74014930  0.91453869  0.36615613     0.12200
H1703       H  0.71194054  0.88685429  0.39530171     0.12200
H1704       H  0.77997606  0.87140044  0.44645523     0.12200
C1705       C  0.91037775  0.06731930  0.32352311    -0.13900
C1706       C  0.88711809  0.07049813  0.33915723     0.08200
C1707       C  0.88337146  0.09432803  0.35361172    -0.13900
C1708       C  0.90334573  0.11377489  0.35427117    -0.13900
C1709       C  0.92756948  0.10983390  0.34052782     0.08200
C1710       C  0.93062327  0.08701167  0.32420008    -0.13900
H1711       H  0.91363006  0.04896901  0.31231961     0.12200
H1712       H  0.86541200  0.09735664  0.36549684     0.12200
H1713       H  0.90030816  0.13146999  0.36656610     0.12200
H1714       H  0.94918951  0.08364299  0.31342516     0.12200
C1715       C  0.77101389  0.00179652  0.24716864    -0.13900
C1716       C  0.76776873  0.98713295  0.27121920     0.08200
C1717       C  0.74432418  0.97154133  0.27406082    -0.13900
C1718       C  0.72398792  0.97198617  0.25478138    -0.13900
C1719       C  0.72609628  0.98796855  0.23161682     0.08200
C1720       C  0.75034262  0.00218836  0.22750743    -0.13900
H1721       H  0.78875747  0.01404986  0.24422831     0.12200
H1722       H  0.74111489  0.95959433  0.29194893     0.12200
H1723       H  0.70596472  0.96036705  0.25859259     0.12200
H1724       H  0.75272319  0.01470006  0.20990309     0.12200
C1725       C  0.74847358  0.09052451  0.60995188    -0.13900
C1726       C  0.77483737  0.08480114  0.60218257     0.08200
C1727       C  0.78581785  0.09741556  0.57946691    -0.13900
C1728       C  0.76916588  0.11143267  0.56207250    -0.13900
C1729       C  0.74163577  0.11301160  0.56755800     0.08200
C1730       C  0.73190495  0.10474204  0.59271441    -0.13900
H1731       H  0.73987573  0.08158420  0.62784011     0.12200
H1732       H  0.80631788  0.09365484  0.57334182     0.12200
H1733       H  0.77726923  0.11833490  0.54309292     0.12200
H1734       H  0.71088006  0.10668515  0.59784326     0.12200
C1735       C  0.75366656  0.90659502  0.61237801    -0.13900
C1736       C  0.74614591  0.93378778  0.61351949     0.08200
C1737       C  0.72268836  0.94222184  0.60067576    -0.13900
C1738       C  0.70989064  0.92493853  0.58286414    -0.13900
C1739       C  0.72009260  0.89909634  0.57857420     0.08200
C1740       C  0.74058268  0.88917504  0.59481562    -0.13900
H1741       H  0.77155689  0.89968320  0.62257355     0.12200
H1742       H  0.71645108  0.96301802  0.60146378     0.12200
H1743       H  0.69360645  0.93250098  0.57062471     0.12200
H1744       H  0.74830029  0.86909532  0.59181972     0.12200
C1745       C  0.92315003  0.05501050  0.64064645    -0.13900
C1746       C  0.90108891  0.05650278  0.65795499     0.08200
C1747       C  0.89960680  0.07744949  0.67675584    -0.13900
C1748       C  0.91874864  0.09816134  0.67634069    -0.13900
C1749       C  0.93957750  0.09784264  0.65725838     0.08200
C1750       C  0.94232682  0.07531371  0.64045519    -0.13900
H1751       H  0.92464900  0.03891012  0.62607062     0.12200
H1752       H  0.88253425  0.07896563  0.69013634     0.12200
H1753       H  0.91626126  0.11514713  0.68968165     0.12200
H1754       H  0.95838351  0.07411478  0.62584164     0.12200
C1755       C  0.84285669  0.01789222  0.51157755    -0.13900
C1756       C  0.84003037  0.99390447  0.52645811     0.08200
C1757       C  0.83875793  0.96973433  0.51157583    -0.13900
C1758       C  0.84005196  0.96964636  0.48308211    -0.13900
C1759       C  0.84229146  0.99374605  0.46823601     0.08200
C1760       C  0.84376827  0.01783205  0.48316102    -0.13900
H1761       H  0.84381479  0.03700000  0.52192863     0.12200
H1762       H  0.83653595  0.95077621  0.52196878     0.12200
H1763       H  0.83862222  0.95062313  0.47261982     0.12200
H1764       H  0.84540583  0.03687194  0.47281280     0.12200
C1765       C  0.86484386  0.58056697  0.43172509    -0.13900
C1766       C  0.85001648  0.60417878  0.42781634     0.08200
C1767       C  0.83394443  0.60661405  0.40478646    -0.13900
C1768       C  0.83397171  0.58635862  0.38528470    -0.13900
C1769       C  0.85014635  0.56354162  0.38859215     0.08200
C1770       C  0.86494299  0.56052909  0.41233460    -0.13900
H1771       H  0.87706966  0.57781699  0.44948634     0.12200
H1772       H  0.82220641  0.62453414  0.40136872     0.12200
H1773       H  0.82228786  0.58907745  0.36716665     0.12200
H1774       H  0.87722308  0.54294431  0.41566137     0.12200
C1775       C  0.76341125  0.74195175  0.52084239    -0.13900
C1776       C  0.77203842  0.73023498  0.49654293     0.08200
C1777       C  0.75905267  0.73840229  0.47275419    -0.13900
C1778       C  0.73888932  0.75828708  0.47320163    -0.13900
C1779       C  0.73104719  0.77073665  0.49744627     0.08200
C1780       C  0.74335571  0.76180365  0.52128199    -0.13900
H1781       H  0.77276668  0.73636625  0.53963186     0.12200
H1782       H  0.76499528  0.72996733  0.45361568     0.12200
H1783       H  0.73001207  0.76449418  0.45437548     0.12200
H1784       H  0.73804842  0.77074299  0.54037581     0.12200
C1785       C  0.17897503  0.57442248  0.39827045    -0.13900
C1786       C  0.15789597  0.55558177  0.39678017     0.08200
C1787       C  0.13958575  0.55381276  0.41815911    -0.13900
C1788       C  0.14025235  0.57252337  0.43883149    -0.13900
C1789       C  0.15938942  0.59319310  0.43873262     0.08200
C1790       C  0.17975344  0.59316227  0.41928591    -0.13900
H1791       H  0.19361310  0.57595679  0.38227676     0.12200
H1792       H  0.12348112  0.53913570  0.41802259     0.12200
H1793       H  0.12449875  0.57210764  0.45383318     0.12200
H1794       H  0.19464846  0.60905969  0.41889140     0.12200
C1795       C  0.24306183  0.73069604  0.51128220    -0.13900
C1796       C  0.22605763  0.72900279  0.48873227     0.08200
C1797       C  0.23046782  0.74711790  0.46752315    -0.13900
C1798       C  0.25085272  0.76663884  0.46889516    -0.13900
C1799       C  0.26709064  0.76934641  0.49191585     0.08200
C1800       C  0.26310716  0.75083408  0.51300453    -0.13900
H1801       H  0.23984229  0.71746597  0.52822499     0.12200
H1802       H  0.21751857  0.74667387  0.45005957     0.12200
H1803       H  0.25298828  0.78054829  0.45232535     0.12200
H1804       H  0.27505532  0.75231732  0.53110332     0.12200
C1805       C  0.98533639  0.66711023  0.47030278    -0.13900
C1806       C  0.97028657  0.66035424  0.49327747     0.08200
C1807       C  0.98442347  0.65157422  0.51613157    -0.13900
C1808       C  0.01279851  0.65058378  0.51630860    -0.13900
C1809       C  0.02791046  0.65748649  0.49333555     0.08200
C1810       C  0.01360987  0.66522943  0.47016384    -0.13900
H1811       H  0.97517422  0.67405642  0.45240262     0.12200
H1812       H  0.97354572  0.64648142  0.53426086     0.12200
H1813       H  0.02295494  0.64459276  0.53455239     0.12200
H1814       H  0.02438056  0.67089181  0.45213846     0.12200
C1815       C  0.06443503  0.72588353  0.37910668    -0.13900
C1816       C  0.06975161  0.75342434  0.37671477     0.08200
C1817       C  0.09455782  0.76369592  0.38557998    -0.13900
C1818       C  0.11135039  0.74786550  0.40112464    -0.13900
C1819       C  0.10380168  0.72151067  0.40719231     0.08200
C1820       C  0.08157147  0.70987739  0.39421103    -0.13900
H1821       H  0.04574381  0.71734212  0.37189744     0.12200
H1822       H  0.09961053  0.78472019  0.38317511     0.12200
H1823       H  0.12880995  0.75694246  0.41046528     0.12200
H1824       H  0.07560995  0.68936445  0.39837628     0.12200
C1825       C  0.90231397  0.78723372  0.41040142    -0.13900
C1826       C  0.91407881  0.77481319  0.38800007     0.08200
C1827       C  0.90734026  0.74826599  0.38153684    -0.13900
C1828       C  0.89140352  0.73336807  0.39904964    -0.13900
C1829       C  0.88300108  0.74478321  0.42338890     0.08200
C1830       C  0.88724591  0.77209718  0.42834864    -0.13900
H1831       H  0.90731066  0.80775179  0.41573881     0.12200
H1832       H  0.91615708  0.73849075  0.36423864     0.12200
H1833       H  0.88821220  0.71221296  0.39501517     0.12200
H1834       H  0.88071770  0.78113008  0.44702341     0.12200
C1835       C  0.06852030  0.91140655  0.36382578    -0.13900
C1836       C  0.06795280  0.89351113  0.34205094     0.08200
C1837       C  0.08657379  0.89679612  0.32114940    -0.13900
C1838       C  0.10666749  0.91660000  0.32308366    -0.13900
C1839       C  0.10812940  0.93345411  0.34581338     0.08200
C1840       C  0.08821037  0.93117363  0.36563141    -0.13900
H1841       H  0.05410458  0.90955355  0.38002483     0.12200
H1842       H  0.08647849  0.88321512  0.30415527     0.12200
H1843       H  0.12158099  0.91804997  0.30733318     0.12200
H1844       H  0.08834629  0.94403468  0.38317919     0.12200
C1845       C  0.94801806  0.92417712  0.34666662    -0.13900
C1846       C  0.94589775  0.90249075  0.32882873     0.08200
C1847       C  0.92481329  0.90175247  0.31015202    -0.13900
C1848       C  0.90440502  0.92102245  0.31148393    -0.13900
C1849       C  0.90511558  0.94082282  0.33158552     0.08200
C1850       C  0.92770627  0.94313558  0.34812399    -0.13900
H1851       H  0.96419251  0.92504386  0.36119261     0.12200
H1852       H  0.92271961  0.88493350  0.29649411     0.12200
H1853       H  0.88697375  0.91893608  0.29864710     0.12200
H1854       H  0.92864177  0.95844085  0.36358003     0.12200
C1855       C  0.97310899  0.74579425  0.26586926    -0.13900
C1856       C  0.99268952  0.76623468  0.26567261     0.08200
C1857       C  0.01146723  0.76628728  0.24443176    -0.13900
C1858       C  0.01153280  0.74535568  0.22502077    -0.13900
C1859       C  0.99286450  0.72400355  0.22656330     0.08200
C1860       C  0.97321588  0.72515147  0.24679336    -0.13900
H1861       H  0.95821937  0.74505087  0.28171399     0.12200
H1862       H  0.02704412  0.78147620  0.24378865     0.12200
H1863       H  0.02714945  0.74499216  0.20990741     0.12200
H1864       H  0.95842225  0.70926028  0.24860731     0.12200
C1865       C  0.09063162  0.74938208  0.60513436    -0.13900
C1866       C  0.08560653  0.77610182  0.59832274     0.08200
C1867       C  0.09935451  0.78784216  0.57659433    -0.13900
C1868       C  0.11353655  0.77166663  0.55879756    -0.13900
C1869       C  0.11433845  0.74392708  0.56309855     0.08200
C1870       C  0.10523298  0.73337245  0.58769529    -0.13900
H1871       H  0.08089333  0.74016508  0.62228696     0.12200
H1872       H  0.09628825  0.80869461  0.57133627     0.12200
H1873       H  0.12119457  0.78038148  0.54038949     0.12200
H1874       H  0.10666117  0.71213357  0.59208772     0.12200
C1875       C  0.93787121  0.72443462  0.60272842    -0.13900
C1876       C  0.93132724  0.75078511  0.60994902     0.08200
C1877       C  0.90492531  0.76004345  0.60619798    -0.13900
C1878       C  0.88686233  0.74501337  0.59107088    -0.13900
C1879       C  0.89514111  0.72066826  0.58006992     0.08200
C1880       C  0.91977744  0.70944058  0.58755486    -0.13900
H1881       H  0.95794544  0.71675023  0.60575281     0.12200
H1882       H  0.89923984  0.78013501  0.61223875     0.12200
H1883       H  0.86786029  0.75380001  0.58531368     0.12200
H1884       H  0.92622030  0.69049668  0.57904401     0.12200
C1885       C  0.90012825  0.88146307  0.63821816    -0.13900
C1886       C  0.92457225  0.88573649  0.65148753     0.08200
C1887       C  0.92755016  0.90830136  0.66824066    -0.13900
C1888       C  0.90694770  0.92740216  0.66989442    -0.13900
C1889       C  0.88330464  0.92388639  0.65489028     0.08200
C1890       C  0.87972609  0.90024098  0.63997684    -0.13900
H1891       H  0.89709675  0.86394074  0.62564368     0.12200
H1892       H  0.94625361  0.91190232  0.67873569     0.12200
H1893       H  0.91014642  0.94557077  0.68144978     0.12200
H1894       H  0.86151387  0.89684195  0.62856068     0.12200
C1895       C  0.06173822  0.92297489  0.62826695    -0.13900
C1896       C  0.05966535  0.90312289  0.64811735     0.08200
C1897       C  0.07805843  0.90305566  0.66944648    -0.13900
C1898       C  0.09953542  0.92131731  0.66967695    -0.13900
C1899       C  0.10265764  0.93997368  0.64869151     0.08200
C1900       C  0.08287555  0.94128844  0.62862399    -0.13900
H1901       H  0.04769000  0.92347914  0.61166530     0.12200
H1902       H  0.07694046  0.88773630  0.68482755     0.12200
H1903       H  0.11434588  0.91995992  0.68551462     0.12200
H1904       H  0.08438718  0.95562353  0.61234605     0.12200
C1905       C  0.97232717  0.83905749  0.50553181    -0.13900
C1906       C  0.99624756  0.83783827  0.52067615     0.08200
C1907       C  0.02059199  0.83647926  0.50622601    -0.13900
C1908       C  0.02104646  0.83602352  0.47788688    -0.13900
C1909       C  0.99720206  0.83727011  0.46270138     0.08200
C1910       C  0.97280587  0.83896615  0.47707761    -0.13900
H1911       H  0.95314130  0.84004142  0.51569189     0.12200
H1912       H  0.03948655  0.83530602  0.51688155     0.12200
H1913       H  0.04026141  0.83463465  0.46782669     0.12200
H1914       H  0.95395267  0.83981717  0.46631332     0.12200
C1915       C  0.60637519  0.41240446  0.82582885    -0.13900
C1916       C  0.60725311  0.43066296  0.84745144     0.08200
C1917       C  0.58779394  0.42862418  0.86776558    -0.13900
C1918       C  0.56876251  0.40826309  0.86726315    -0.13900
C1919       C  0.56831609  0.38953064  0.84630480     0.08200
C1920       C  0.58680786  0.39199446  0.82515701    -0.13900
H1921       H  0.62105906  0.41355716  0.80983185     0.12200
H1922       H  0.58759112  0.44238221  0.88461016     0.12200
H1923       H  0.55449816  0.40688466  0.88364902     0.12200
H1924       H  0.58679272  0.37760301  0.80884701     0.12200
C1925       C  0.60193823  0.42115046  0.17496413    -0.13900
C1926       C  0.59836783  0.44311126  0.15773254     0.08200
C1927       C  0.57525733  0.44447424  0.14178496    -0.13900
C1928       C  0.55707201  0.42321045  0.14131732    -0.13900
C1929       C  0.56184456  0.39997544  0.15654274     0.08200
C1930       C  0.58378585  0.39960780  0.17432319    -0.13900
H1931       H  0.61986394  0.41962268  0.18716549     0.12200
H1932       H  0.57216365  0.46130189  0.12837707     0.12200
H1933       H  0.54012157  0.42434448  0.12775477     0.12200
H1934       H  0.58791072  0.38201220  0.18636422     0.12200
C1935       C  0.76752475  0.46889474  0.24932622    -0.13900
C1936       C  0.77100238  0.49105595  0.26658792     0.08200
C1937       C  0.75360486  0.51312255  0.26329541    -0.13900
C1938       C  0.73383585  0.51322819  0.24293481    -0.13900
C1939       C  0.73143358  0.49159164  0.22487555     0.08200
C1940       C  0.74837824  0.46934971  0.22858358    -0.13900
H1941       H  0.78062660  0.45167098  0.25091115     0.12200
H1942       H  0.75574797  0.53063471  0.27602141     0.12200
H1943       H  0.72150512  0.53088472  0.24032770     0.12200
H1944       H  0.74732304  0.45251329  0.21483838     0.12200
C1945       C  0.68338154  0.52328310  0.01268434    -0.13900
C1946       C  0.66407623  0.50804510  0.02678901     0.08200
C1947       C  0.64629727  0.49211619  0.01138893    -0.13900
C1948       C  0.64761686  0.49169012  0.98296809    -0.13900
C1949       C  0.66738835  0.50641814  0.96895156     0.08200
C1950       C  0.68527617  0.52214999  0.98437355    -0.13900
H1951       H  0.69764500  0.53555317  0.02364247     0.12200
H1952       H  0.63125315  0.47995271  0.02135925     0.12200
H1953       H  0.63357200  0.47921635  0.97195841     0.12200
H1954       H  0.70075563  0.53381398  0.97446441     0.12200
C1955       C  0.72333842  0.38648553  0.06177722    -0.13900
C1956       C  0.75032315  0.38214610  0.06831944     0.08200
C1957       C  0.76007087  0.39035328  0.09352840    -0.13900
C1958       C  0.74477636  0.40726688  0.10945717    -0.13900
C1959       C  0.71946441  0.41536399  0.10057169     0.08200
C1960       C  0.70784524  0.40304568  0.07799687    -0.13900
H1961       H  0.71518392  0.37984277  0.04271818     0.12200
H1962       H  0.78060046  0.38647451  0.09946887     0.12200
H1963       H  0.75371071  0.41602772  0.12728271     0.12200
H1964       H  0.68805611  0.40872559  0.07108362     0.12200
C1965       C  0.74357157  0.39085706  0.91086766    -0.13900
C1966       C  0.77117721  0.39536304  0.91437643     0.08200
C1967       C  0.78446874  0.41423663  0.89811246    -0.13900
C1968       C  0.76974788  0.43113563  0.88159101    -0.13900
C1969       C  0.74184418  0.42858079  0.88056143     0.08200
C1970       C  0.72896605  0.40734626  0.89376296    -0.13900
H1971       H  0.73296179  0.37622489  0.92296519     0.12200
H1972       H  0.80580981  0.41794120  0.90023373     0.12200
H1973       H  0.77978312  0.44755946  0.87145144     0.12200
H1974       H  0.70728697  0.40540554  0.89320423     0.12200
C1975       C  0.90721842  0.36739534  0.07124368    -0.13900
C1976       C  0.88964616  0.34558210  0.06833255     0.08200
C1977       C  0.89315746  0.32277254  0.08454498    -0.13900
C1978       C  0.91329830  0.32252483  0.10435098    -0.13900
C1979       C  0.93036060  0.34489668  0.10767860     0.08200
C1980       C  0.92734170  0.36700499  0.09045140    -0.13900
H1981       H  0.90516710  0.38509240  0.05879013     0.12200
H1982       H  0.87976041  0.30570571  0.08260381     0.12200
H1983       H  0.91522957  0.30516672  0.11725558     0.12200
H1984       H  0.94008502  0.38458436  0.09222951     0.12200
C1985       C  0.76736821  0.24876221  0.00690603    -0.13900
C1986       C  0.76575109  0.27123720  0.98971348     0.08200
C1987       C  0.74422271  0.27204117  0.97141140    -0.13900
C1988       C  0.72415496  0.25226286  0.97128244    -0.13900
C1989       C  0.72463956  0.23063146  0.98940284     0.08200
C1990       C  0.74702680  0.22864573  0.00672995    -0.13900
H1991       H  0.78343585  0.24751360  0.02147742     0.12200
H1992       H  0.74225163  0.28878028  0.95769391     0.12200
H1993       H  0.70752842  0.25450300  0.95746385     0.12200
H1994       H  0.74804355  0.21242383  0.02113801     0.12200
C1995       C  0.79073178  0.58260155  0.09178961    -0.13900
C1996       C  0.77932623  0.60779971  0.08679621     0.08200
C1997       C  0.75609574  0.61559417  0.10025941    -0.13900
C1998       C  0.74229118  0.59685002  0.11574006    -0.13900
C1999       C  0.75129933  0.57008752  0.11694664     0.08200
C2000       C  0.77674246  0.56368854  0.10693978    -0.13900
H2001       H  0.80869955  0.57643524  0.08122693     0.12200
H2002       H  0.74713628  0.63499395  0.09642308     0.12200
H2003       H  0.72294516  0.60241293  0.12391464     0.12200
H2004       H  0.78420415  0.54331544  0.10780826     0.12200
C2005       C  0.76435486  0.61259629  0.90302633    -0.13900
C2006       C  0.75244944  0.61706723  0.92820722     0.08200
C2007       C  0.72597284  0.60880848  0.93283634    -0.13900
C2008       C  0.71250669  0.59385121  0.91344031    -0.13900
C2009       C  0.72570404  0.58653677  0.88971632     0.08200
C2010       C  0.75117475  0.59685356  0.88396435    -0.13900
H2011       H  0.78490061  0.61871946  0.89922094     0.12200
H2012       H  0.71653770  0.61214395  0.95213698     0.12200
H2013       H  0.69295022  0.58550592  0.91820929     0.12200
H2014       H  0.76166638  0.59084903  0.86590282     0.12200
C2015       C  0.92312185  0.63367760  0.05593525    -0.13900
C2016       C  0.90291610  0.65324552  0.05705069     0.08200
C2017       C  0.90527185  0.67426713  0.07584189    -0.13900
C2018       C  0.92620486  0.67424051  0.09468884    -0.13900
C2019       C  0.94472504  0.65307987  0.09499094     0.08200
C2020       C  0.94365975  0.63352018  0.07478174    -0.13900
H2021       H  0.92224394  0.61741125  0.04150221     0.12200
H2022       H  0.89013295  0.68975632  0.07701552     0.12200
H2023       H  0.92662872  0.68944890  0.11025039     0.12200
H2024       H  0.95786873  0.61710486  0.07455678     0.12200
C2025       C  0.84889350  0.51450911  0.98441306    -0.13900
C2026       C  0.83086933  0.52849107  0.00118785     0.08200
C2027       C  0.81467670  0.51300316  0.01855574    -0.13900
C2028       C  0.81641913  0.48467875  0.01918680    -0.13900
C2029       C  0.83380177  0.47056349  0.00185412     0.08200
C2030       C  0.84999438  0.48604689  0.98439885    -0.13900
H2031       H  0.86165763  0.52558143  0.97071022     0.12200
H2032       H  0.80065199  0.52287522  0.03189031     0.12200
H2033       H  0.80349548  0.47372124  0.03283626     0.12200
H2034       H  0.86362660  0.47612585  0.97070989     0.12200
C2035       C  0.57615298  0.59877757  0.81985671    -0.13900
C2036       C  0.55405429  0.59562631  0.83698753     0.08200
C2037       C  0.55239182  0.57301317  0.85361521    -0.13900
C2038       C  0.57365126  0.55511528  0.85509202    -0.13900
C2039       C  0.59707293  0.55961321  0.84006876     0.08200
C2040       C  0.59764621  0.58080226  0.82138156    -0.13900
H2041       H  0.57791359  0.61640080  0.80722388     0.12200
H2042       H  0.53549989  0.57039380  0.86707103     0.12200
H2043       H  0.57236946  0.53871279  0.86932044     0.12200
H2044       H  0.61538648  0.58461257  0.80941451     0.12200
C2045       C  0.42653745  0.58598301  0.86604669    -0.13900
C2046       C  0.42710933  0.60541363  0.84582139     0.08200
C2047       C  0.40875761  0.60396785  0.82451272    -0.13900
C2048       C  0.38902840  0.58382456  0.82433688    -0.13900
C2049       C  0.38791618  0.56490249  0.84528043     0.08200
C2050       C  0.40732912  0.56586774  0.86570850    -0.13900
H2051       H  0.44076980  0.58666352  0.88250100     0.12200
H2052       H  0.40897879  0.61897241  0.80879266     0.12200
H2053       H  0.37436309  0.58343836  0.80829522     0.12200
H2054       H  0.40732966  0.55149131  0.88200840     0.12200
C2055       C  0.57163742  0.59035158  0.17464534    -0.13900
C2056       C  0.57351460  0.61356299  0.15876435     0.08200
C2057       C  0.59703365  0.61856363  0.14412638    -0.13900
C2058       C  0.61739783  0.59970218  0.14337645    -0.13900
C2059       C  0.61474523  0.57541972  0.15730591     0.08200
C2060       C  0.59229284  0.57127297  0.17394188    -0.13900
H2061       H  0.55357284  0.58614536  0.18601060     0.12200
H2062       H  0.59907190  0.63655640  0.13206709     0.12200
H2063       H  0.63477222  0.60361396  0.13086582     0.12200
H2064       H  0.58993765  0.55265394  0.18491864     0.12200
C2065       C  0.42503459  0.58539135  0.17961487    -0.13900
C2066       C  0.44452395  0.58792410  0.15942394     0.08200
C2067       C  0.44669649  0.56791483  0.13972264    -0.13900
C2068       C  0.42771658  0.54749084  0.13816943    -0.13900
C2069       C  0.40627697  0.54668712  0.15634771     0.08200
C2070       C  0.40590846  0.56469778  0.17810698    -0.13900
H2071       H  0.42298792  0.60075797  0.19487919     0.12200
H2072       H  0.46177827  0.56941122  0.12411067     0.12200
H2073       H  0.42858398  0.53356951  0.12145114     0.12200
H2074       H  0.38946286  0.56439330  0.19232031     0.12200
C2075       C  0.50059689  0.72605723  0.24962916    -0.13900
C2076       C  0.48588829  0.72898733  0.22554018     0.08200
C2077       C  0.47038658  0.75240018  0.22266308    -0.13900
C2078       C  0.47073816  0.77281685  0.24199914    -0.13900
C2079       C  0.48652566  0.77090686  0.26534047     0.08200
C2080       C  0.50087906  0.74679611  0.26934806    -0.13900
H2081       H  0.51293585  0.70847339  0.25259075     0.12200
H2082       H  0.45852489  0.75550877  0.20470987     0.12200
H2083       H  0.45913083  0.79074449  0.23813872     0.12200
H2084       H  0.51339072  0.74455452  0.28696770     0.12200
C2085       C  0.47210226  0.65758683  0.01469368    -0.13900
C2086       C  0.49604507  0.65253363  0.02892610     0.08200
C2087       C  0.51927545  0.64717829  0.01366257    -0.13900
C2088       C  0.51862638  0.64728518  0.98524943    -0.13900
C2089       C  0.49482636  0.65318652  0.97102458     0.08200
C2090       C  0.47154176  0.65810516  0.98634303    -0.13900
H2091       H  0.45379646  0.66199634  0.02553739     0.12200
H2092       H  0.53809185  0.64312122  0.02371045     0.12200
H2093       H  0.53704027  0.64337238  0.97439823     0.12200
H2094       H  0.45282267  0.66279191  0.97640011     0.12200
C2095       C  0.60868833  0.75050268  0.09531027    -0.13900
C2096       C  0.60158948  0.77690316  0.08912119     0.08200
C2097       C  0.57762522  0.78764526  0.09932973    -0.13900
C2098       C  0.55894657  0.77081660  0.11163861    -0.13900
C2099       C  0.56443529  0.74335645  0.11406854     0.08200
C2100       C  0.59023401  0.73381097  0.10790623    -0.13900
H2101       H  0.62729737  0.74204475  0.08795106     0.12200
H2102       H  0.57184314  0.80809939  0.09483315     0.12200
H2103       H  0.53939059  0.77873993  0.11677676     0.12200
H2104       H  0.59530613  0.71284452  0.11047541     0.12200
C2105       C  0.60321248  0.76093575  0.91172741    -0.13900
C2106       C  0.60931620  0.75137919  0.93760570     0.08200
C2107       C  0.60303138  0.72484733  0.94445670    -0.13900
C2108       C  0.58797578  0.70921147  0.92684041    -0.13900
C2109       C  0.57887766  0.72019270  0.90251821     0.08200
C2110       C  0.58769913  0.74553542  0.89440524    -0.13900
H2111       H  0.60839182  0.78119928  0.90572740     0.12200
H2112       H  0.60762253  0.71701691  0.96420825     0.12200
H2113       H  0.58122583  0.68958641  0.93342362     0.12200
H2114       H  0.58106899  0.75409683  0.87555741     0.12200
C2115       C  0.68251672  0.90673940  0.07510996    -0.13900
C2116       C  0.66204769  0.90545338  0.05577964     0.08200
C2117       C  0.64307454  0.92610122  0.05437014    -0.13900
C2118       C  0.64239496  0.94587771  0.07399442    -0.13900
C2119       C  0.66076250  0.94539246  0.09525863     0.08200
C2120       C  0.68189722  0.92679634  0.09488608    -0.13900
H2121       H  0.69725949  0.89087652  0.07651875     0.12200
H2122       H  0.62731055  0.92559058  0.03938835     0.12200
H2123       H  0.62620180  0.96034112  0.07372462     0.12200
H2124       H  0.69626641  0.92618462  0.11118560     0.12200
C2125       C  0.73130092  0.74927380  0.03095162    -0.13900
C2126       C  0.72689740  0.76707364  0.00946454     0.08200
C2127       C  0.74427579  0.76553121  0.98721306    -0.13900
C2128       C  0.76467070  0.74588322  0.98602992    -0.13900
C2129       C  0.76875737  0.72773280  0.00740494     0.08200
C2130       C  0.75213437  0.73026333  0.03014822    -0.13900
H2131       H  0.71811027  0.74964684  0.04823029     0.12200
H2132       H  0.74115508  0.77853694  0.97009556     0.12200
H2133       H  0.77687720  0.74450292  0.96809876     0.12200
H2134       H  0.75432616  0.71656781  0.04687206     0.12200
C2135       C  0.38989113  0.76153906  0.09552216    -0.13900
C2136       C  0.38179618  0.75241732  0.07005076     0.08200
C2137       C  0.38396497  0.72508098  0.06369605    -0.13900
C2138       C  0.39815066  0.70814161  0.08070723    -0.13900
C2139       C  0.41035225  0.71865691  0.10385692     0.08200
C2140       C  0.40442436  0.74475803  0.11225442    -0.13900
H2141       H  0.38766290  0.78238478  0.10129534     0.12200
H2142       H  0.37736145  0.71744924  0.04441175     0.12200
H2143       H  0.40236906  0.68787519  0.07404984     0.12200
H2144       H  0.41328880  0.75295913  0.13037494     0.12200
C2145       C  0.41713457  0.78794804  0.90290378    -0.13900
C2146       C  0.39432307  0.77700016  0.91539103     0.08200
C2147       C  0.38590334  0.75098228  0.90894829    -0.13900
C2148       C  0.40233865  0.73469606  0.89347844    -0.13900
C2149       C  0.42756373  0.74420131  0.88497698     0.08200
C2150       C  0.43386755  0.77149291  0.88782876    -0.13900
H2151       H  0.42379730  0.80817554  0.90745704     0.12200
H2152       H  0.36801465  0.74245446  0.91797529     0.12200
H2153       H  0.39659820  0.71387358  0.89076496     0.12200
H2154       H  0.45296209  0.77941407  0.88101526     0.12200
C2155       C  0.32653498  0.89410423  0.08947077    -0.13900
C2156       C  0.34545792  0.89302803  0.06868844     0.08200
C2157       C  0.36389748  0.91399599  0.06536296    -0.13900
C2158       C  0.36451751  0.93519921  0.08336809    -0.13900
C2159       C  0.34694888  0.93564163  0.10539555     0.08200
C2160       C  0.32736822  0.91534223  0.10792425    -0.13900
H2161       H  0.31217908  0.87795414  0.09219991     0.12200
H2162       H  0.37840354  0.91356033  0.04914177     0.12200
H2163       H  0.37954597  0.95070905  0.08055205     0.12200
H2164       H  0.31350363  0.91530578  0.12466823     0.12200
C2165       C  0.27298384  0.74850898  0.97156243    -0.13900
C2166       C  0.27166705  0.76975553  0.99011968     0.08200
C2167       C  0.24868131  0.77126147  0.00668288    -0.13900
C2168       C  0.22866990  0.75080696  0.00586196    -0.13900
C2169       C  0.23130099  0.72854732  0.98843397     0.08200
C2170       C  0.25330607  0.72845421  0.97070978    -0.13900
H2171       H  0.29007856  0.74669448  0.95824453     0.12200
H2172       H  0.24699292  0.78723559  0.02133081     0.12200
H2173       H  0.21209438  0.75159789  0.01989216     0.12200
H2174       H  0.25603796  0.71202055  0.95672553     0.12200
C2175       C  0.48578426  0.84157417  0.97886729    -0.13900
C2176       C  0.47115782  0.83945497  0.00309807     0.08200
C2177       C  0.48617043  0.83810520  0.02709801    -0.13900
C2178       C  0.51457680  0.83881321  0.02687592    -0.13900
C2179       C  0.52919608  0.84053309  0.00261838     0.08200
C2180       C  0.51419406  0.84190081  0.97862087    -0.13900
H2181       H  0.47523750  0.84253716  0.95989231     0.12200
H2182       H  0.47593282  0.83637105  0.04620410     0.12200
H2183       H  0.52514519  0.83743005  0.04581402     0.12200
H2184       H  0.52445316  0.84311205  0.95948499     0.12200
C2185       C  0.57997703  0.85136535  0.56020535    -0.13900
C2186       C  0.60513763  0.83970357  0.56476469     0.08200
C2187       C  0.60962399  0.82555543  0.58873255    -0.13900
C2188       C  0.58995094  0.82526036  0.60882962    -0.13900
C2189       C  0.56571240  0.83909156  0.60502725     0.08200
C2190       C  0.56047866  0.85103202  0.58008056    -0.13900
H2191       H  0.57577813  0.86195997  0.54169236     0.12200
H2192       H  0.62886398  0.81631682  0.59263471     0.12200
H2193       H  0.59440312  0.81581318  0.62788562     0.12200
H2194       H  0.54178391  0.86141658  0.57637658     0.12200
C2195       C  0.40864268  0.83008096  0.60834949    -0.13900
C2196       C  0.43100456  0.84728105  0.60621599     0.08200
C2197       C  0.43341536  0.86380049  0.58350542    -0.13900
C2198       C  0.41345254  0.86415015  0.56403119    -0.13900
C2199       C  0.39047714  0.84796896  0.56664277     0.08200
C2200       C  0.38851369  0.83039581  0.58865153    -0.13900
H2201       H  0.40628298  0.81707221  0.62559929     0.12200
H2202       H  0.45051282  0.87705044  0.58099263     0.12200
H2203       H  0.41581539  0.87762805  0.54713794     0.12200
H2204       H  0.37104198  0.81764375  0.59113050     0.12200
C2205       C  0.48198665  0.75023717  0.73431012    -0.13900
C2206       C  0.50399928  0.76790291  0.73094505     0.08200
C2207       C  0.52633066  0.76431352  0.74791499    -0.13900
C2208       C  0.52606466  0.74504830  0.76852632    -0.13900
C2209       C  0.50379701  0.72808027  0.77256012     0.08200
C2210       C  0.48201674  0.73038605  0.75466399    -0.13900
H2211       H  0.46438083  0.75230066  0.72176092     0.12200
H2212       H  0.54365780  0.77738541  0.74619934     0.12200
H2213       H  0.54310024  0.74395742  0.78197194     0.12200
H2214       H  0.46437074  0.71792824  0.75739547     0.12200
C2215       C  0.59691726  0.14282838  0.61753992    -0.13900
C2216       C  0.57289372  0.15705219  0.61442888     0.08200
C2217       C  0.56929271  0.17313324  0.59151977    -0.13900
C2218       C  0.58870205  0.17310791  0.57101777    -0.13900
C2219       C  0.61165276  0.15696500  0.57343318     0.08200
C2220       C  0.61602180  0.14274167  0.59727593    -0.13900
H2221       H  0.60035894  0.13061148  0.63519317     0.12200
H2222       H  0.55083592  0.18418556  0.58870174     0.12200
H2223       H  0.58497651  0.18417316  0.55269052     0.12200
H2224       H  0.63377461  0.13048506  0.59973185     0.12200
C2225       C  0.42094855  0.13630600  0.55782514    -0.13900
C2226       C  0.39938185  0.15421102  0.56033705     0.08200
C2227       C  0.40058627  0.17446000  0.58003369    -0.13900
C2228       C  0.42177686  0.17506567  0.59850102    -0.13900
C2229       C  0.44177474  0.15535728  0.59745569     0.08200
C2230       C  0.44185167  0.13680559  0.57628052    -0.13900
H2231       H  0.42092956  0.12078703  0.54256807     0.12200
H2232       H  0.38434952  0.18866808  0.58228410     0.12200
H2233       H  0.42129439  0.18940950  0.61485880     0.12200
H2234       H  0.45722329  0.12151694  0.57505856     0.12200
C2235       C  0.50042588  0.24781780  0.72986283    -0.13900
C2236       C  0.48795052  0.22267256  0.73443141     0.08200
C2237       C  0.47409603  0.21937674  0.75886487    -0.13900
C2238       C  0.47384876  0.23945803  0.77853708    -0.13900
C2239       C  0.48753194  0.26401270  0.77500118     0.08200
C2240       C  0.50025771  0.26824648  0.74994115    -0.13900
H2241       H  0.51130694  0.25125668  0.71136046     0.12200
H2242       H  0.46385448  0.20067588  0.76327774     0.12200
H2243       H  0.46340633  0.23521470  0.79713984     0.12200
H2244       H  0.51098043  0.28682096  0.74627818     0.12200
C2245       C  0.47670081  0.01170217  0.67202007    -0.13900
C2246       C  0.49929550  0.02552095  0.66184124     0.08200
C2247       C  0.52090691  0.00982392  0.65247394    -0.13900
C2248       C  0.51978084  0.98136367  0.65309823    -0.13900
C2249       C  0.49742408  0.96767684  0.66399226     0.08200
C2250       C  0.47600081  0.98339497  0.67353597    -0.13900
H2251       H  0.45973038  0.02288463  0.67965268     0.12200
H2252       H  0.53869351  0.01956177  0.64457958     0.12200
H2253       H  0.53684168  0.97004009  0.64589645     0.12200
H2254       H  0.45855384  0.97371679  0.68222898     0.12200
C2255       C  0.39184249  0.08811951  0.76419077    -0.13900
C2256       C  0.38493952  0.06278736  0.75366653     0.08200
C2257       C  0.38775466  0.05789658  0.72614607    -0.13900
C2258       C  0.40163804  0.07634421  0.71037557    -0.13900
C2259       C  0.41297327  0.09931977  0.72232792     0.08200
C2260       C  0.40623872  0.10618387  0.74864936    -0.13900
H2261       H  0.38888035  0.09276320  0.78524363     0.12200
H2262       H  0.38204988  0.03873508  0.71752291     0.12200
H2263       H  0.40647435  0.07089720  0.68987483     0.12200
H2264       H  0.41439448  0.12412027  0.75794375     0.12200
C2265       C  0.38684543  0.90164767  0.75010970    -0.13900
C2266       C  0.39369315  0.90709313  0.77688305     0.08200
C2267       C  0.41428971  0.89242172  0.78926394    -0.13900
C2268       C  0.43080245  0.87613101  0.77383351    -0.13900
C2269       C  0.42614250  0.87372880  0.74626499     0.08200
C2270       C  0.40291081  0.88463724  0.73487429    -0.13900
H2271       H  0.37076719  0.91246867  0.74033177     0.12200
H2272       H  0.41977426  0.89607275  0.80999566     0.12200
H2273       H  0.44870253  0.86769844  0.78278680     0.12200
H2274       H  0.39918806  0.88291437  0.71350353     0.12200
C2275       C  0.36585523  0.09691184  0.88102013    -0.13900
C2276       C  0.34768617  0.07539237  0.88305440     0.08200
C2277       C  0.32748424  0.07633883  0.90272525    -0.13900
C2278       C  0.32681410  0.09758112  0.92129909    -0.13900
C2279       C  0.34628685  0.11809934  0.92028751     0.08200
C2280       C  0.36513411  0.11798606  0.89933268    -0.13900
H2281       H  0.38129255  0.09705180  0.86569879     0.12200
H2282       H  0.31316496  0.06004033  0.90461517     0.12200
H2283       H  0.31202617  0.09720532  0.93722294     0.12200
H2284       H  0.38011056  0.13372762  0.89766918     0.12200
C2285       C  0.36182751  0.94425265  0.92728417    -0.13900
C2286       C  0.34153299  0.94453921  0.90783907     0.08200
C2287       C  0.31918550  0.92752558  0.91069047    -0.13900
C2288       C  0.31885818  0.90815878  0.93111582    -0.13900
C2289       C  0.34087858  0.90594252  0.94856644     0.08200
C2290       C  0.36146316  0.92517734  0.94752847    -0.13900
H2291       H  0.37908021  0.95745917  0.92556727     0.12200
H2292       H  0.30338644  0.92748186  0.89575801     0.12200
H2293       H  0.30282738  0.89342800  0.93161296     0.12200
H2294       H  0.37846575  0.92404626  0.96104900     0.12200
C2295       C  0.26871662  0.96690966  0.75401500    -0.13900
C2296       C  0.27294127  0.98825209  0.77214518     0.08200
C2297       C  0.25528502  0.01023719  0.77082230    -0.13900
C2298       C  0.23512373  0.01152009  0.75082306    -0.13900
C2299       C  0.23156831  0.99051976  0.73204749     0.08200
C2300       C  0.24816750  0.96782254  0.73463177    -0.13900
H2301       H  0.28205188  0.94978667  0.75419859     0.12200
H2302       H  0.25818831  0.02722740  0.78409038     0.12200
H2303       H  0.22286742  0.02937015  0.74951007     0.12200
H2304       H  0.24635664  0.95132408  0.72056317     0.12200
C2305       C  0.57968848  0.09388956  0.79174071    -0.13900
C2306       C  0.60330244  0.08318256  0.78074335     0.08200
C2307       C  0.61069707  0.08966526  0.75444968    -0.13900
C2308       C  0.59285256  0.10335582  0.73811307    -0.13900
C2309       C  0.56730602  0.11026449  0.74786158     0.08200
C2310       C  0.56159652  0.10728476  0.77525271    -0.13900
H2311       H  0.57370374  0.08917772  0.81211882     0.12200
H2312       H  0.62906480  0.08192282  0.74579759     0.12200
H2313       H  0.59810622  0.10620289  0.71719836     0.12200
H2314       H  0.54223096  0.11290332  0.78333270     0.12200
C2315       C  0.60120120  0.94233720  0.72867931    -0.13900
C2316       C  0.61455509  0.93340781  0.75168264     0.08200
C2317       C  0.61392003  0.90598642  0.75848193    -0.13900
C2318       C  0.59699162  0.88846611  0.74465447    -0.13900
C2319       C  0.58068364  0.89852583  0.72426047     0.08200
C2320       C  0.58398968  0.92497135  0.71521006    -0.13900
H2321       H  0.60143164  0.96335856  0.72310696     0.12200
H2322       H  0.62437409  0.89874200  0.77609730     0.12200
H2323       H  0.59462243  0.86799687  0.75161377     0.12200
H2324       H  0.57154853  0.93275545  0.69917767     0.12200
C2325       C  0.64421073  0.89866343  0.88350727    -0.13900
C2326       C  0.66107146  0.92116353  0.88576817     0.08200
C2327       C  0.67917578  0.92277869  0.90737319    -0.13900
C2328       C  0.67853339  0.90321484  0.92768098    -0.13900
C2329       C  0.65973643  0.88211861  0.92638991     0.08200
C2330       C  0.64351565  0.87943758  0.90356618    -0.13900
H2331       H  0.63046621  0.89657355  0.86676542     0.12200
H2332       H  0.69243902  0.93992826  0.90944403     0.12200
H2333       H  0.69136398  0.90552529  0.94509097     0.12200
H2334       H  0.62930270  0.86301146  0.90176890     0.12200
C2335       C  0.64562596  0.05025276  0.92902486    -0.13900
C2336       C  0.66396505  0.05185276  0.90774808     0.08200
C2337       C  0.68350111  0.07223926  0.90766470    -0.13900
C2338       C  0.68262834  0.09256703  0.92713648    -0.13900
C2339       C  0.66217691  0.09243931  0.94653988     0.08200
C2340       C  0.64470201  0.07042494  0.94824435    -0.13900
H2341       H  0.63049121  0.03457504  0.92945854     0.12200
H2342       H  0.69762183  0.07389395  0.89120180     0.12200
H2343       H  0.69617257  0.10954657  0.92549194     0.12200
H2344       H  0.62894900  0.06990619  0.96325065     0.12200
C2345       C  0.72750487  0.02746163  0.74779182    -0.13900
C2346       C  0.72925858  0.00980212  0.76977874     0.08200
C2347       C  0.75226809  0.99338169  0.77143846    -0.13900
C2348       C  0.77180281  0.99338285  0.75057690    -0.13900
C2349       C  0.76868648  0.00976538  0.72762845     0.08200
C2350       C  0.74669416  0.02741731  0.72723404    -0.13900
H2351       H  0.71040965  0.04068475  0.74579279     0.12200
H2352       H  0.75433671  0.97941466  0.78794061     0.12200
H2353       H  0.78838821  0.97945431  0.75164381     0.12200
H2354       H  0.74362814  0.04062677  0.71024983     0.12200
C2355       C  0.51683463  0.97020212  0.84116355    -0.13900
C2356       C  0.53170156  0.99429051  0.84362554     0.08200
C2357       C  0.51691237  0.01832555  0.84590683    -0.13900
C2358       C  0.48852515  0.01835326  0.84514224    -0.13900
C2359       C  0.47365972  0.99430461  0.84244906     0.08200
C2360       C  0.48840505  0.97019723  0.84078545    -0.13900
H2361       H  0.52720782  0.95124962  0.83923085     0.12200
H2362       H  0.52733108  0.03737370  0.84768462     0.12200
H2363       H  0.47817417  0.03737101  0.84649979     0.12200
H2364       H  0.47794363  0.95122352  0.83853509     0.12200
C2365       C  0.81691309  0.58359723  0.59782940    -0.13900
C2366       C  0.83245020  0.56034280  0.59517446     0.08200
C2367       C  0.84752034  0.55619299  0.57186148    -0.13900
C2368       C  0.84928445  0.57620474  0.55255615    -0.13900
C2369       C  0.83624357  0.60083823  0.55649435     0.08200
C2370       C  0.81878246  0.60385699  0.57846281    -0.13900
H2371       H  0.80545887  0.58715548  0.61596335     0.12200
H2372       H  0.85967215  0.53831339  0.56964318     0.12200
H2373       H  0.86244025  0.57311227  0.53553055     0.12200
H2374       H  0.80838358  0.62262360  0.58183569     0.12200
C2375       C  0.84762255  0.40287324  0.61625395    -0.13900
C2376       C  0.83627201  0.42774365  0.60982081     0.08200
C2377       C  0.82358158  0.43107347  0.58485306    -0.13900
C2378       C  0.82420985  0.41022631  0.56579474    -0.13900
C2379       C  0.83757900  0.38611266  0.57170468     0.08200
C2380       C  0.84828672  0.38229929  0.59741936    -0.13900
H2381       H  0.85725370  0.39982178  0.63551623     0.12200
H2382       H  0.81487551  0.45021997  0.57948758     0.12200
H2383       H  0.81591222  0.41356890  0.54598069     0.12200
H2384       H  0.85834958  0.36375283  0.60253640     0.12200
C2385       C  0.76586631  0.53077888  0.74675381    -0.13900
C2386       C  0.76942868  0.50899070  0.72911804     0.08200
C2387       C  0.75178989  0.48697513  0.73136503    -0.13900
C2388       C  0.73187039  0.48634410  0.75155591    -0.13900
C2389       C  0.72866903  0.50800450  0.76957298     0.08200
C2390       C  0.74558381  0.53048807  0.76635969    -0.13900
H2391       H  0.77936312  0.54785354  0.74583623     0.12200
H2392       H  0.75437604  0.46962986  0.71851381     0.12200
H2393       H  0.71938311  0.46861397  0.75347685     0.12200
H2394       H  0.74403971  0.54742281  0.77991913     0.12200
C2395       C  0.14123475  0.60050536  0.61466267    -0.13900
C2396       C  0.15459011  0.57600468  0.61149882     0.08200
C2397       C  0.17071374  0.57177392  0.58874668    -0.13900
C2398       C  0.17143488  0.59103080  0.56825237    -0.13900
C2399       C  0.15603841  0.61445278  0.57058826     0.08200
C2400       C  0.14195352  0.61954249  0.59439836    -0.13900
H2401       H  0.12913395  0.60440645  0.63231473     0.12200
H2402       H  0.18120224  0.55295883  0.58602927     0.12200
H2403       H  0.18238577  0.58682315  0.54994987     0.12200
H2404       H  0.13031723  0.63774014  0.59674841     0.12200
C2405       C  0.13646972  0.44343047  0.57499582    -0.13900
C2406       C  0.15365125  0.44259059  0.59719555     0.08200
C2407       C  0.17223932  0.42165096  0.59956209    -0.13900
C2408       C  0.17191260  0.40046557  0.58104739    -0.13900
C2409       C  0.15310645  0.40026205  0.55997766     0.08200
C2410       C  0.13634832  0.42261108  0.55642978    -0.13900
H2411       H  0.12203110  0.45951045  0.57286500     0.12200
H2412       H  0.18545649  0.42061155  0.61679764     0.12200
H2413       H  0.18518981  0.38358853  0.58414971     0.12200
H2414       H  0.12195326  0.42335128  0.54015406     0.12200
C2415       C  0.24200225  0.51535492  0.72841627    -0.13900
C2416       C  0.22377716  0.49379912  0.72627491     0.08200
C2417       C  0.22800772  0.47110839  0.74248129    -0.13900
C2418       C  0.24934994  0.47017429  0.76088393    -0.13900
C2419       C  0.26670311  0.49228345  0.76432971     0.08200
C2420       C  0.26300647  0.51475532  0.74747264    -0.13900
H2421       H  0.23902785  0.53330097  0.71654623     0.12200
H2422       H  0.21416037  0.45432290  0.74152041     0.12200
H2423       H  0.25126052  0.45265540  0.77358709     0.12200
H2424       H  0.27582914  0.53222632  0.74961244     0.12200
C2425       C  0.00859305  0.52895696  0.66075792    -0.13900
C2426       C  0.02373211  0.50529795  0.65739986     0.08200
C2427       C  0.00929681  0.48120546  0.65303736    -0.13900
C2428       C  0.98093362  0.48072093  0.65247739    -0.13900
C2429       C  0.96580089  0.50433378  0.65598520     0.08200
C2430       C  0.98020620  0.52850840  0.65993958    -0.13900
H2431       H  0.01869906  0.54792026  0.66433352     0.12200
H2432       H  0.01994888  0.46249153  0.65042112     0.12200
H2433       H  0.97080859  0.46167251  0.64944243     0.12200
H2434       H  0.96948794  0.54711829  0.66301905     0.12200
C2435       C  0.06140939  0.38836180  0.72651351    -0.13900
C2436       C  0.06598446  0.38594909  0.75411412     0.08200
C2437       C  0.09001903  0.39597881  0.76520909    -0.13900
C2438       C  0.10655816  0.41252996  0.75004764    -0.13900
C2439       C  0.09960733  0.41835433  0.72352483     0.08200
C2440       C  0.07837922  0.40435879  0.71116098    -0.13900
H2441       H  0.04335759  0.38030777  0.71739576     0.12200
H2442       H  0.09450134  0.39371375  0.78636668     0.12200
H2443       H  0.12327783  0.42262040  0.75969643     0.12200
H2444       H  0.07295348  0.40821933  0.69046392     0.12200
C2445       C  0.89523722  0.41834841  0.78486316    -0.13900
C2446       C  0.90998672  0.39726418  0.77339043     0.08200
C2447       C  0.90593574  0.39048270  0.74641017    -0.13900
C2448       C  0.89127536  0.40748869  0.73003201    -0.13900
C2449       C  0.88087819  0.43150171  0.74054499     0.08200
C2450       C  0.88079496  0.43559683  0.76838175    -0.13900
H2451       H  0.89753128  0.42354227  0.80586142     0.12200
H2452       H  0.91644260  0.37375406  0.73735408     0.12200
H2453       H  0.89068453  0.40327697  0.70869541     0.12200
H2454       H  0.87213343  0.45353570  0.77705001     0.12200
C2455       C  0.90122555  0.31902053  0.92277669    -0.13900
C2456       C  0.90091645  0.33899412  0.94270863     0.08200
C2457       C  0.92184728  0.35783260  0.94383148    -0.13900
C2458       C  0.94116768  0.35864490  0.92374695    -0.13900
C2459       C  0.93995478  0.34058860  0.90219419     0.08200
C2460       C  0.92081305  0.31979253  0.90250654    -0.13900
H2461       H  0.88507731  0.30445947  0.92149757     0.12200
H2462       H  0.92204598  0.37328288  0.95917325     0.12200
H2463       H  0.95597698  0.37463277  0.92402273     0.12200
H2464       H  0.91954655  0.30573463  0.88594293     0.12200
C2465       C  0.07819068  0.32767978  0.89458175    -0.13900
C2466       C  0.06182428  0.35035015  0.89152019     0.08200
C2467       C  0.06431561  0.37183274  0.90948428    -0.13900
C2468       C  0.08366618  0.37139326  0.92941327    -0.13900
C2469       C  0.10133292  0.34959390  0.93164916     0.08200
C2470       C  0.09808070  0.32739074  0.91447089    -0.13900
H2471       H  0.07645187  0.31087012  0.88086947     0.12200
H2472       H  0.05161816  0.38936097  0.90773209     0.12200
H2473       H  0.08539262  0.38877773  0.94239568     0.12200
H2474       H  0.11132076  0.31026823  0.91589880     0.12200
C2475       C  0.01272171  0.25586511  0.76648525    -0.13900
C2476       C  0.99092948  0.27384656  0.76697884     0.08200
C2477       C  0.97017419  0.26965781  0.74821671    -0.13900
C2478       C  0.97130719  0.24866417  0.72927152    -0.13900
C2479       C  0.99368103  0.23147435  0.72770506     0.08200
C2480       C  0.01425924  0.23522323  0.74689346    -0.13900
H2481       H  0.02928601  0.25867915  0.78028037     0.12200
H2482       H  0.95320780  0.28317784  0.74775768     0.12200
H2483       H  0.95509974  0.24673932  0.71490559     0.12200
H2484       H  0.03184174  0.22253691  0.74641413     0.12200
C2485       C  0.09372640  0.59090366  0.78584078    -0.13900
C2486       C  0.08584889  0.61455348  0.77281121     0.08200
C2487       C  0.09520606  0.62022380  0.74705330    -0.13900
C2488       C  0.10928609  0.60070133  0.73301931    -0.13900
C2489       C  0.11323511  0.57514189  0.74442731     0.08200
C2490       C  0.10739836  0.57108409  0.77163195    -0.13900
H2491       H  0.08622638  0.58629223  0.80576143     0.12200
H2492       H  0.08901419  0.63832774  0.73677188     0.12200
H2493       H  0.11429637  0.60456584  0.71219577     0.12200
H2494       H  0.11048939  0.55170082  0.78091625     0.12200
C2495       C  0.90497173  0.60841650  0.76518588    -0.13900
C2496       C  0.92721111  0.62003745  0.75238689     0.08200
C2497       C  0.93022117  0.61781914  0.72459187    -0.13900
C2498       C  0.91254467  0.60184525  0.71000362    -0.13900
C2499       C  0.89243505  0.58716968  0.72335758     0.08200
C2500       C  0.88778072  0.59166575  0.75075073    -0.13900
H2501       H  0.90257177  0.60996887  0.78676037     0.12200
H2502       H  0.94734569  0.62676983  0.71456919     0.12200
H2503       H  0.91646902  0.59875349  0.68882919     0.12200
H2504       H  0.87224147  0.58068935  0.76132351     0.12200
C2505       C  0.05570848  0.64563176  0.92153011    -0.13900
C2506       C  0.05885326  0.66219487  0.89889805     0.08200
C2507       C  0.07981650  0.68122948  0.89869705    -0.13900
C2508       C  0.09889695  0.68156222  0.91941922    -0.13900
C2509       C  0.09719304  0.66281224  0.94037233     0.08200
C2510       C  0.07481040  0.64579507  0.94192415    -0.13900
H2511       H  0.03949125  0.63112834  0.92263714     0.12200
H2512       H  0.08262264  0.69441978  0.88164830     0.12200
H2513       H  0.11620950  0.69468341  0.91777674     0.12200
H2514       H  0.07315288  0.63121198  0.95797996     0.12200
C2515       C  0.93352855  0.64011601  0.91198262    -0.13900
C2516       C  0.92992642  0.65532408  0.88855461     0.08200
C2517       C  0.90671852  0.67109465  0.88595847    -0.13900
C2518       C  0.88673829  0.67024851  0.90585920    -0.13900
C2519       C  0.88984544  0.65359006  0.92844054     0.08200
C2520       C  0.91381207  0.63924955  0.93157999    -0.13900
H2521       H  0.95138121  0.62813989  0.91494159     0.12200
H2522       H  0.90353375  0.68312863  0.86815193     0.12200
H2523       H  0.86851957  0.68168048  0.90307590     0.12200
H2524       H  0.91715894  0.62666812  0.94898624     0.12200
C2525       C  0.98150526  0.74840560  0.75792741    -0.13900
C2526       C  0.00443980  0.73317178  0.76461378     0.08200
C2527       C  0.02829596  0.73882953  0.75039586    -0.13900
C2528       C  0.02886526  0.75784221  0.72941023    -0.13900
C2529       C  0.00586195  0.77256450  0.72233743     0.08200
C2530       C  0.98227692  0.76794796  0.73727795    -0.13900
H2531       H  0.96267969  0.74466713  0.76813653     0.12200
H2532       H  0.04634966  0.72755354  0.75457204     0.12200
H2533       H  0.04720879  0.76043907  0.71802936     0.12200
H2534       H  0.96399688  0.77836252  0.73197354     0.12200
C2535       C  0.98759959  0.51937311  0.85055033    -0.13900
C2536       C  0.00110951  0.53270765  0.82941377     0.08200
C2537       C  0.01403685  0.51634916  0.81021794    -0.13900
C2538       C  0.01360173  0.48797463  0.81208276    -0.13900
C2539       C  0.99945240  0.47457535  0.83271260     0.08200
C2540       C  0.98638274  0.49087141  0.85189758    -0.13900
H2541       H  0.97732682  0.53101305  0.86573997     0.12200
H2542       H  0.02474928  0.52555807  0.79366727     0.12200
H2543       H  0.02388782  0.47640897  0.79683629     0.12200
H2544       H  0.97534956  0.48155470  0.86816382     0.12200
loop_ 
_geom_bond_atom_site_label_1 
_geom_bond_atom_site_label_2 
_geom_bond_distance 
_geom_bond_site_symmetry_2 
_ccdc_geom_bond_type 
Zn1           O5   1.926       .  S
Zn1           O6   1.988       .  S
Zn1          O10   2.005   1_455  S
Zn1          O17   2.090       .  S
Zn2           O5   1.943       .  S
Zn2           O7   2.084       .  S
Zn2           O9   1.993       .  S
Zn2          O13   2.035       .  S
Zn3           O5   1.955   1_655  S
Zn3           O8   1.983       .  S
Zn3          O11   2.089       .  S
Zn3          O14   2.040       .  S
Zn4           O5   1.932   1_655  S
Zn4          O12   1.982       .  S
Zn4          O15   2.011   1_655  S
Zn4          O16   2.117       .  S
O6           C18   1.275       .  A
O7           C19   1.281       .  A
O8           C20   1.271       .  A
O9           C18   1.270       .  A
O10          C20   1.277       .  A
O11          C19   1.281   1_655  A
O12          C21   1.275       .  A
O13          C22   1.280       .  A
O14          C21   1.279       .  A
O15          C22   1.279       .  A
O16          C23   1.282   1_655  A
O17          C23   1.279       .  A
C18        C2486   1.447       .  S
C19        C2526   1.517       .  S
C20        C2496   1.452       .  S
C21        C2516   1.477       .  S
C22        C2506   1.482       .  S
C23        C2536   1.526       .  S
Zn24         O28   1.892   1_455  S
Zn24         O29   2.082       .  S
Zn24         O33   1.937       .  S
Zn24         O40   1.969       .  S
Zn25         O28   1.936       .  S
Zn25         O30   1.981       .  S
Zn25         O32   2.126       .  S
Zn25         O36   2.000       .  S
Zn26         O28   1.908       .  S
Zn26         O31   2.023   1_655  S
Zn26         O34   1.993       .  S
Zn26         O37   2.032       .  S
Zn27         O28   1.963       .  S
Zn27         O35   2.129       .  S
Zn27         O38   2.049       .  S
Zn27         O39   2.037   1_655  S
O29          C41   1.276   1_455  A
O30          C42   1.273       .  A
O31          C43   1.279       .  A
O32          C41   1.281       .  A
O33          C43   1.267       .  A
O34          C42   1.278       .  A
O35          C44   1.285       .  A
O36          C45   1.279       .  A
O37          C44   1.273       .  A
O38          C45   1.281       .  A
O39          C46   1.278       .  A
O40          C46   1.274       .  A
C41        C2539   1.525       .  S
C42        C2446   1.461       .  S
C43        C2436   1.463       .  S
C44        C2476   1.509       .  S
C45        C2459   1.469       .  S
C46        C2466   1.464       .  S
Zn47         O51   1.923       .  S
Zn47         O52   1.954       .  S
Zn47         O56   1.976       .  S
Zn47         O63   2.070       .  S
Zn48         O51   1.937       .  S
Zn48         O53   2.024       .  S
Zn48         O55   2.008       .  S
Zn48         O59   2.036       .  S
Zn49         O51   1.970       .  S
Zn49         O54   2.040       .  S
Zn49         O57   2.099       .  S
Zn49         O60   2.029       .  S
Zn50         O51   1.921       .  S
Zn50         O58   1.978       .  S
Zn50         O61   1.946       .  S
Zn50         O62   2.094       .  S
O52          C64   1.268       .  A
O53          C65   1.272       .  A
O54          C66   1.278       .  A
O55          C64   1.278       .  A
O56          C66   1.273       .  A
O57          C65   1.281       .  A
O58          C67   1.275       .  A
O59          C68   1.278       .  A
O60          C67   1.277       .  A
O61          C68   1.268       .  A
O62          C69   1.278       .  A
O63          C69   1.275       .  A
C64        C2439   1.458       .  S
C65        C2416   1.496       .  S
C66        C2406   1.463       .  S
C67        C2396   1.466       .  S
C68        C2489   1.467       .  S
C69        C2426   1.519       .  S
Zn70         O74   1.924       .  S
Zn70         O75   1.952       .  S
Zn70         O79   2.082       .  S
Zn70         O86   1.983       .  S
Zn71         O74   1.928       .  S
Zn71         O76   2.008       .  S
Zn71         O78   2.009       .  S
Zn71         O82   2.010       .  S
Zn72         O74   1.919       .  S
Zn72         O77   2.078       .  S
Zn72         O80   1.971       .  S
Zn72         O83   1.979       .  S
Zn73         O74   1.970       .  S
Zn73         O81   2.039       .  S
Zn73         O84   2.111       .  S
Zn73         O85   2.056       .  S
O75          C87   1.269       .  A
O76          C88   1.276       .  A
O77          C89   1.277       .  A
O78          C87   1.276       .  A
O79          C89   1.278       .  A
O80          C88   1.270       .  A
O81          C90   1.278       .  A
O82          C91   1.271       .  A
O83          C90   1.275       .  A
O84          C91   1.283       .  A
O85          C92   1.279       .  A
O86          C92   1.274       .  A
C87        C2449   1.464       .  S
C88        C2499   1.463       .  S
C89        C2429   1.517       .  S
C90        C2366   1.457       .  S
C91        C2386   1.496       .  S
C92        C2376   1.471       .  S
Zn93         O97   1.985       .  S
Zn93         O98   2.056       .  S
Zn93        O102   2.050   1_565  S
Zn93        O109   2.139       .  S
Zn94         O97   1.924       .  S
Zn94         O99   2.091       .  S
Zn94        O101   1.968       .  S
Zn94        O105   1.958       .  S
Zn95         O97   1.935   1_545  S
Zn95        O100   1.978       .  S
Zn95        O103   2.082       .  S
Zn95        O106   1.975       .  S
Zn96         O97   1.917   1_545  S
Zn96        O104   1.986       .  S
Zn96        O107   2.008   1_545  S
Zn96        O108   2.008       .  S
O98         C110   1.280       .  A
O99         C111   1.277       .  A
O100        C112   1.276       .  A
O101        C110   1.274       .  A
O102        C112   1.280       .  A
O103        C111   1.277   1_545  A
O104        C113   1.274       .  A
O105        C114   1.269       .  A
O106        C113   1.270       .  A
O107        C114   1.274       .  A
O108        C115   1.272       .  A
O109        C115   1.285   1_565  A
C110       C2326   1.473       .  S
C111       C2356   1.521       .  S
C112       C2336   1.465       .  S
C113       C2306   1.458       .  S
C114       C2316   1.459       .  S
C115       C2346   1.511       .  S
Zn116       O120   1.927       .  S
Zn116       O121   1.979       .  S
Zn116       O125   2.096       .  S
Zn116       O132   1.978       .  S
Zn117       O120   1.979       .  S
Zn117       O122   2.059   1_565  S
Zn117       O124   2.045       .  S
Zn117       O128   2.128       .  S
Zn118       O120   1.926   1_545  S
Zn118       O123   2.079       .  S
Zn118       O126   1.979       .  S
Zn118       O129   1.934       .  S
Zn119       O120   1.940       .  S
Zn119       O127   2.015   1_565  S
Zn119       O130   2.018       .  S
Zn119       O131   2.004       .  S
O121        C133   1.277       .  A
O122        C134   1.280       .  A
O123        C135   1.276   1_545  A
O124        C133   1.280       .  A
O125        C135   1.278       .  A
O126        C134   1.273       .  A
O127        C136   1.276       .  A
O128        C137   1.284       .  A
O129        C136   1.268       .  A
O130        C137   1.271       .  A
O131        C138   1.276       .  A
O132        C138   1.271       .  A
C133       C2286   1.464       .  S
C134       C2276   1.478       .  S
C135       C2359   1.521       .  S
C136       C2256   1.460       .  S
C137       C2296   1.505       .  S
C138       C2266   1.463       .  S
Zn139       O143   1.915       .  S
Zn139       O144   2.003       .  S
Zn139       O148   2.011       .  S
Zn139       O155   2.012       .  S
Zn140       O143   1.916       .  S
Zn140       O145   1.970       .  S
Zn140       O147   1.958       .  S
Zn140       O151   2.066       .  S
Zn141       O143   1.977       .  S
Zn141       O146   2.146       .  S
Zn141       O149   2.052       .  S
Zn141       O152   2.058       .  S
Zn142       O143   1.928       .  S
Zn142       O150   1.980       .  S
Zn142       O153   2.102       .  S
Zn142       O154   1.955       .  S
O144        C156   1.277       .  A
O145        C157   1.275       .  A
O146        C158   1.286       .  A
O147        C156   1.267       .  A
O148        C158   1.273       .  A
O149        C157   1.281       .  A
O150        C159   1.276       .  A
O151        C160   1.274       .  A
O152        C159   1.281       .  A
O153        C160   1.278       .  A
O154        C161   1.270       .  A
O155        C161   1.276       .  A
C156       C2259   1.454       .  S
C157       C2229   1.466       .  S
C158       C2236   1.515       .  S
C159       C2216   1.473       .  S
C160       C2246   1.517       .  S
C161       C2309   1.465       .  S
Zn162       O166   1.947       .  S
Zn162       O167   2.057       .  S
Zn162       O171   1.995       .  S
Zn162       O178   2.020       .  S
Zn163       O166   1.949       .  S
Zn163       O168   1.991       .  S
Zn163       O170   2.090       .  S
Zn163       O174   2.035       .  S
Zn164       O166   1.914       .  S
Zn164       O169   1.973       .  S
Zn164       O172   1.990       .  S
Zn164       O175   2.069       .  S
Zn165       O166   1.923       .  S
Zn165       O173   2.109       .  S
Zn165       O176   2.002       .  S
Zn165       O177   1.987       .  S
O167        C179   1.279       .  A
O168        C180   1.271       .  A
O169        C181   1.272       .  A
O170        C179   1.281       .  A
O171        C181   1.270       .  A
O172        C180   1.275       .  A
O173        C182   1.280       .  A
O174        C183   1.280       .  A
O175        C182   1.276       .  A
O176        C183   1.278       .  A
O177        C184   1.275       .  A
O178        C184   1.277       .  A
C179       C2206   1.511       .  S
C180       C2269   1.451       .  S
C181       C2319   1.449       .  S
C182       C2249   1.513       .  S
C183       C2196   1.479       .  S
C184       C2189   1.472       .  S
Zn185       O189   1.921   1_556  S
Zn185       O190   1.967       .  S
Zn185       O194   2.082       .  S
Zn185       O201   1.970       .  S
Zn186       O189   1.903   1_556  S
Zn186       O191   2.005   1_556  S
Zn186       O193   1.995       .  S
Zn186       O197   2.005       .  S
Zn187       O189   1.915       .  S
Zn187       O192   2.092       .  S
Zn187       O195   1.960       .  S
Zn187       O198   1.974       .  S
Zn188       O189   1.979       .  S
Zn188       O196   2.036       .  S
Zn188       O199   2.128       .  S
Zn188       O200   2.047   1_554  S
O190        C202   1.270       .  A
O191        C203   1.276       .  A
O192        C204   1.278       .  A
O193        C202   1.276       .  A
O194        C204   1.276   1_556  A
O195        C203   1.271       .  A
O196        C205   1.278       .  A
O197        C206   1.272       .  A
O198        C205   1.274       .  A
O199        C206   1.283   1_554  A
O200        C207   1.280       .  A
O201        C207   1.275       .  A
C202       C2146   1.457       .  S
C203       C2136   1.464       .  S
C204       C2176   1.521       .  S
C205       C2156   1.458       .  S
C206       C2166   1.507       .  S
C207       C2289   1.466       .  S
Zn208       O212   1.923   1_556  S
Zn208       O213   1.974       .  S
Zn208       O217   2.086       .  S
Zn208       O224   1.940       .  S
Zn209       O212   1.976       .  S
Zn209       O214   2.049       .  S
Zn209       O216   2.041   1_554  S
Zn209       O220   2.115       .  S
Zn210       O212   1.931       .  S
Zn210       O215   2.083       .  S
Zn210       O218   1.980       .  S
Zn210       O221   1.973       .  S
Zn211       O212   1.928       .  S
Zn211       O219   1.995       .  S
Zn211       O222   2.030       .  S
Zn211       O223   2.018   1_554  S
O213        C225   1.274       .  A
O214        C226   1.280       .  A
O215        C227   1.276       .  A
O216        C225   1.277       .  A
O217        C227   1.277   1_556  A
O218        C226   1.276       .  A
O219        C228   1.276       .  A
O220        C229   1.284       .  A
O221        C228   1.270       .  A
O222        C229   1.273       .  A
O223        C230   1.276       .  A
O224        C230   1.267       .  A
C225       C2329   1.471       .  S
C226       C2116   1.465       .  S
C227       C2179   1.520       .  S
C228       C2096   1.458       .  S
C229       C2126   1.502       .  S
C230       C2106   1.462       .  S
Zn231       O235   1.919       .  S
Zn231       O236   1.989       .  S
Zn231       O240   2.010       .  S
Zn231       O247   2.001       .  S
Zn232       O235   1.926       .  S
Zn232       O237   2.070       .  S
Zn232       O239   1.972       .  S
Zn232       O243   1.974       .  S
Zn233       O235   1.929       .  S
Zn233       O238   1.957       .  S
Zn233       O241   2.088       .  S
Zn233       O244   1.966       .  S
Zn234       O235   1.988       .  S
Zn234       O242   2.051       .  S
Zn234       O245   2.059       .  S
Zn234       O246   2.145       .  S
O236        C248   1.275       .  A
O237        C249   1.275       .  A
O238        C250   1.269       .  A
O239        C248   1.270       .  A
O240        C250   1.274       .  A
O241        C249   1.277       .  A
O242        C251   1.280       .  A
O243        C252   1.275       .  A
O244        C251   1.274       .  A
O245        C252   1.281       .  A
O246        C253   1.286       .  A
O247        C253   1.271       .  A
C248       C2139   1.456       .  S
C249       C2086   1.515       .  S
C250       C2099   1.465       .  S
C251       C2056   1.468       .  S
C252       C2066   1.467       .  S
C253       C2076   1.512       .  S
Zn254       O258   1.970       .  S
Zn254       O259   2.037       .  S
Zn254       O263   2.054       .  S
Zn254       O270   2.113       .  S
Zn255       O258   1.915       .  S
Zn255       O260   2.081       .  S
Zn255       O262   1.966       .  S
Zn255       O266   1.953       .  S
Zn256       O258   1.928       .  S
Zn256       O261   1.964       .  S
Zn256       O264   2.073       .  S
Zn256       O267   1.954       .  S
Zn257       O258   1.920       .  S
Zn257       O265   2.003       .  S
Zn257       O268   2.016       .  S
Zn257       O269   2.031       .  S
O259        C271   1.278       .  A
O260        C272   1.276       .  A
O261        C273   1.273       .  A
O262        C271   1.273       .  A
O263        C273   1.280       .  A
O264        C272   1.274       .  A
O265        C274   1.277       .  A
O266        C275   1.270       .  A
O267        C274   1.268       .  A
O268        C275   1.277       .  A
O269        C276   1.274       .  A
O270        C276   1.283       .  A
C271       C2046   1.460       .  S
C272       C2089   1.517       .  S
C273       C2036   1.462       .  S
C274       C2109   1.454       .  S
C275       C2149   1.465       .  S
C276       C2209   1.503       .  S
Zn277       O281   1.948   1_556  S
Zn277       O282   2.071       .  S
Zn277       O286   1.981       .  S
Zn277       O293   2.037       .  S
Zn278       O281   1.937       .  S
Zn278       O283   1.989       .  S
Zn278       O285   2.074       .  S
Zn278       O289   2.030       .  S
Zn279       O281   1.925       .  S
Zn279       O284   2.014   1_554  S
Zn279       O287   1.994       .  S
Zn279       O290   2.080       .  S
Zn280       O281   1.926   1_556  S
Zn280       O288   2.102       .  S
Zn280       O291   2.001   1_556  S
Zn280       O292   1.987       .  S
O282        C294   1.279   1_556  A
O283        C295   1.269       .  A
O284        C296   1.278       .  A
O285        C294   1.280       .  A
O286        C296   1.272       .  A
O287        C295   1.275       .  A
O288        C297   1.280   1_556  A
O289        C298   1.279       .  A
O290        C297   1.278       .  A
O291        C298   1.277       .  A
O292        C299   1.276       .  A
O293        C299   1.278       .  A
C294       C2129   1.509       .  S
C295       C1996   1.448       .  S
C296       C2006   1.459       .  S
C297       C2026   1.517       .  S
C298       C2016   1.480       .  S
C299       C2519   1.477       .  S
Zn300       O304   1.915       .  S
Zn300       O305   2.002   1_556  S
Zn300       O309   2.005       .  S
Zn300       O316   1.994       .  S
Zn301       O304   1.908   1_554  S
Zn301       O306   1.981       .  S
Zn301       O308   1.954       .  S
Zn301       O312   2.085       .  S
Zn302       O304   1.980   1_554  S
Zn302       O307   2.141   1_554  S
Zn302       O310   2.062       .  S
Zn302       O313   2.059   1_554  S
Zn303       O304   1.932       .  S
Zn303       O311   1.983       .  S
Zn303       O314   2.098       .  S
Zn303       O315   1.979       .  S
O305        C317   1.275       .  A
O306        C318   1.276       .  A
O307        C319   1.286       .  A
O308        C317   1.270       .  A
O309        C319   1.271       .  A
O310        C318   1.281       .  A
O311        C320   1.276       .  A
O312        C321   1.277       .  A
O313        C320   1.281       .  A
O314        C321   1.278   1_556  A
O315        C322   1.272       .  A
O316        C322   1.275       .  A
C317       C1956   1.462       .  S
C318       C1976   1.474       .  S
C319       C1986   1.509       .  S
C320       C2456   1.468       .  S
C321       C2029   1.520       .  S
C322       C1966   1.464       .  S
Zn323       O327   1.926       .  S
Zn323       O328   2.020       .  S
Zn323       O332   2.032       .  S
Zn323       O339   1.995       .  S
Zn324       O327   1.961       .  S
Zn324       O329   2.037       .  S
Zn324       O331   2.113       .  S
Zn324       O335   2.050       .  S
Zn325       O327   1.906       .  S
Zn325       O330   1.951       .  S
Zn325       O333   1.986       .  S
Zn325       O336   2.094       .  S
Zn326       O327   1.933       .  S
Zn326       O334   2.078       .  S
Zn326       O337   1.985       .  S
Zn326       O338   1.966       .  S
O328        C340   1.272       .  A
O329        C341   1.279       .  A
O330        C342   1.269       .  A
O331        C340   1.283       .  A
O332        C342   1.278       .  A
O333        C341   1.277       .  A
O334        C343   1.276       .  A
O335        C344   1.280       .  A
O336        C343   1.279       .  A
O337        C344   1.275       .  A
O338        C345   1.270       .  A
O339        C345   1.277       .  A
C340       C1939   1.499       .  S
C341       C2059   1.470       .  S
C342       C1999   1.467       .  S
C343       C1946   1.517       .  S
C344       C1926   1.467       .  S
C345       C1959   1.456       .  S
Zn346       O350   1.925       .  S
Zn346       O351   1.993       .  S
Zn346       O355   2.007       .  S
Zn346       O362   2.100       .  S
Zn347       O350   1.950       .  S
Zn347       O352   2.068       .  S
Zn347       O354   2.036       .  S
Zn347       O358   1.984       .  S
Zn348       O350   1.927       .  S
Zn348       O353   2.014       .  S
Zn348       O356   2.059       .  S
Zn348       O359   1.993       .  S
Zn349       O350   1.921       .  S
Zn349       O357   1.993       .  S
Zn349       O360   1.994       .  S
Zn349       O361   2.078       .  S
O351        C363   1.276       .  A
O352        C364   1.279       .  A
O353        C365   1.277       .  A
O354        C363   1.278       .  A
O355        C365   1.278       .  A
O356        C364   1.279       .  A
O357        C366   1.273       .  A
O358        C367   1.271       .  A
O359        C366   1.270       .  A
O360        C367   1.275       .  A
O361        C368   1.278       .  A
O362        C368   1.281       .  A
C363       C1916   1.480       .  S
C364       C2389   1.504       .  S
C365       C2039   1.475       .  S
C366       C2009   1.448       .  S
C367       C1969   1.448       .  S
C368       C1949   1.516       .  S
Zn369       O373   1.932   1_655  S
Zn369       O374   2.101       .  S
Zn369       O378   1.986       .  S
Zn369       O385   1.956       .  S
Zn370       O373   1.929       .  S
Zn370       O375   1.975       .  S
Zn370       O377   2.066       .  S
Zn370       O381   1.963       .  S
Zn371       O373   1.971   1_655  S
Zn371       O376   2.044       .  S
Zn371       O379   2.060   1_655  S
Zn371       O382   2.131   1_655  S
Zn372       O373   1.939       .  S
Zn372       O380   2.028       .  S
Zn372       O383   2.004       .  S
Zn372       O384   2.018   1_455  S
O374        C386   1.278       .  A
O375        C387   1.274       .  A
O376        C388   1.278       .  A
O377        C386   1.275   1_455  A
O378        C388   1.276       .  A
O379        C387   1.282       .  A
O380        C389   1.272       .  A
O381        C390   1.268       .  A
O382        C389   1.285       .  A
O383        C390   1.277       .  A
O384        C391   1.276       .  A
O385        C391   1.270       .  A
C386       C1906   1.519       .  S
C387       C1896   1.471       .  S
C388       C1886   1.472       .  S
C389       C2529   1.506       .  S
C390       C1866   1.461       .  S
C391       C1876   1.464       .  S
Zn392       O396   1.917       .  S
Zn392       O397   1.974       .  S
Zn392       O401   2.085       .  S
Zn392       O408   1.968       .  S
Zn393       O396   1.973   1_455  S
Zn393       O398   2.072       .  S
Zn393       O400   2.053   1_455  S
Zn393       O404   2.136       .  S
Zn394       O396   1.903   1_455  S
Zn394       O399   2.072       .  S
Zn394       O402   1.973       .  S
Zn394       O405   1.958       .  S
Zn395       O396   1.907       .  S
Zn395       O403   2.016   1_655  S
Zn395       O406   2.001       .  S
Zn395       O407   2.007       .  S
O397        C409   1.275       .  A
O398        C410   1.282       .  A
O399        C411   1.276   1_455  A
O400        C409   1.281       .  A
O401        C411   1.277       .  A
O402        C410   1.273       .  A
O403        C412   1.277       .  A
O404        C413   1.286   1_455  A
O405        C412   1.271       .  A
O406        C413   1.272       .  A
O407        C414   1.277       .  A
O408        C414   1.270       .  A
C409       C1846   1.464       .  S
C410       C1836   1.475       .  S
C411       C1909   1.517       .  S
C412       C1816   1.466       .  S
C413       C1856   1.505       .  S
C414       C1826   1.458       .  S
Zn415       O419   1.930       .  S
Zn415       O420   2.008       .  S
Zn415       O424   2.017       .  S
Zn415       O431   2.021       .  S
Zn416       O419   1.921       .  S
Zn416       O421   1.977       .  S
Zn416       O423   1.969       .  S
Zn416       O427   2.076       .  S
Zn417       O419   1.971       .  S
Zn417       O422   2.115       .  S
Zn417       O425   2.052       .  S
Zn417       O428   2.039       .  S
Zn418       O419   1.922       .  S
Zn418       O426   1.963       .  S
Zn418       O429   2.075       .  S
Zn418       O430   1.937       .  S
O420        C432   1.278       .  A
O421        C433   1.275       .  A
O422        C434   1.283       .  A
O423        C432   1.269       .  A
O424        C434   1.272       .  A
O425        C433   1.281       .  A
O426        C435   1.272       .  A
O427        C436   1.276       .  A
O428        C435   1.277       .  A
O429        C436   1.275       .  A
O430        C437   1.267       .  A
O431        C437   1.276       .  A
C432       C1819   1.460       .  S
C433       C1789   1.465       .  S
C434       C1796   1.500       .  S
C435       C2399   1.464       .  S
C436       C1809   1.512       .  S
C437       C1869   1.464       .  S
Zn438       O442   1.924       .  S
Zn438       O443   1.981       .  S
Zn438       O447   1.990       .  S
Zn438       O454   2.098       .  S
Zn439       O442   1.938       .  S
Zn439       O444   2.088       .  S
Zn439       O446   2.031       .  S
Zn439       O450   1.985       .  S
Zn440       O442   1.940       .  S
Zn440       O445   2.013       .  S
Zn440       O448   2.053       .  S
Zn440       O451   1.989       .  S
Zn441       O442   1.909       .  S
Zn441       O449   1.985       .  S
Zn441       O452   2.000       .  S
Zn441       O453   2.068       .  S
O443        C455   1.275       .  A
O444        C456   1.281       .  A
O445        C457   1.276       .  A
O446        C455   1.280       .  A
O447        C457   1.276       .  A
O448        C456   1.277       .  A
O449        C458   1.274       .  A
O450        C459   1.272       .  A
O451        C458   1.270       .  A
O452        C459   1.277       .  A
O453        C460   1.275       .  A
O454        C460   1.279       .  A
C455       C1766   1.474       .  S
C456       C1776   1.511       .  S
C457       C2369   1.471       .  S
C458       C1879   1.447       .  S
C459       C1829   1.454       .  S
C460       C1806   1.507       .  S
Zn461       O465   1.929   1_565  S
Zn461       O466   2.107       .  S
Zn461       O470   1.958       .  S
Zn461       O477   1.970       .  S
Zn462       O465   1.939       .  S
Zn462       O467   1.975       .  S
Zn462       O469   2.088       .  S
Zn462       O473   1.984       .  S
Zn463       O465   1.930       .  S
Zn463       O468   2.012   1_545  S
Zn463       O471   1.988       .  S
Zn463       O474   2.016       .  S
Zn464       O465   1.987   1_565  S
Zn464       O472   2.136       .  S
Zn464       O475   2.045   1_565  S
Zn464       O476   2.053       .  S
O466        C478   1.279       .  A
O467        C479   1.270       .  A
O468        C480   1.275       .  A
O469        C478   1.277   1_545  A
O470        C480   1.270       .  A
O471        C479   1.275       .  A
O472        C481   1.284   1_565  A
O473        C482   1.276       .  A
O474        C481   1.272       .  A
O475        C482   1.279       .  A
O476        C483   1.280       .  A
O477        C483   1.274       .  A
C478       C1756   1.527       .  S
C479       C1726   1.460       .  S
C480       C1736   1.459       .  S
C481       C2349   1.512       .  S
C482       C1746   1.465       .  S
C483       C1889   1.472       .  S
Zn484       O488   1.920       .  S
Zn484       O489   1.995       .  S
Zn484       O493   2.012   1_565  S
Zn484       O500   1.989       .  S
Zn485       O488   1.985       .  S
Zn485       O490   2.047   1_565  S
Zn485       O492   2.128       .  S
Zn485       O496   2.035       .  S
Zn486       O488   1.922   1_545  S
Zn486       O491   1.952       .  S
Zn486       O494   1.978       .  S
Zn486       O497   2.085       .  S
Zn487       O488   1.934       .  S
Zn487       O495   2.105       .  S
Zn487       O498   2.004       .  S
Zn487       O499   1.980       .  S
O489        C501   1.270       .  A
O490        C502   1.279       .  A
O491        C503   1.268       .  A
O492        C501   1.283       .  A
O493        C503   1.275       .  A
O494        C502   1.275       .  A
O495        C504   1.279       .  A
O496        C505   1.278       .  A
O497        C504   1.278   1_545  A
O498        C505   1.279       .  A
O499        C506   1.271       .  A
O500        C506   1.275       .  A
C501       C1716   1.506       .  S
C502       C1706   1.469       .  S
C503       C1686   1.466       .  S
C504       C1759   1.525       .  S
C505       C1849   1.465       .  S
C506       C1696   1.460       .  S
Zn507       O511   1.927       .  S
Zn507       O512   1.976       .  S
Zn507       O516   1.990       .  S
Zn507       O523   2.083       .  S
Zn508       O511   1.910       .  S
Zn508       O513   2.001       .  S
Zn508       O515   1.989       .  S
Zn508       O519   1.994       .  S
Zn509       O511   1.981       .  S
Zn509       O514   2.047       .  S
Zn509       O517   2.145       .  S
Zn509       O520   2.053       .  S
Zn510       O511   1.932       .  S
Zn510       O518   1.981       .  S
Zn510       O521   1.963       .  S
Zn510       O522   2.098       .  S
O512        C524   1.270       .  A
O513        C525   1.271       .  A
O514        C526   1.280       .  A
O515        C524   1.275       .  A
O516        C526   1.278       .  A
O517        C525   1.286       .  A
O518        C527   1.276       .  A
O519        C528   1.273       .  A
O520        C527   1.280       .  A
O521        C528   1.270       .  A
O522        C529   1.278       .  A
O523        C529   1.277       .  A
C524       C1689   1.456       .  S
C525       C1669   1.514       .  S
C526       C1656   1.465       .  S
C527       C2219   1.471       .  S
C528       C1729   1.463       .  S
C529       C1676   1.519       .  S
Zn530       O534   1.926       .  S
Zn530       O535   1.987       .  S
Zn530       O539   2.005       .  S
Zn530       O546   2.113       .  S
Zn531       O534   1.952       .  S
Zn531       O536   2.067       .  S
Zn531       O538   2.020       .  S
Zn531       O542   1.987       .  S
Zn532       O534   1.936       .  S
Zn532       O537   2.025       .  S
Zn532       O540   2.079       .  S
Zn532       O543   1.991       .  S
Zn533       O534   1.911       .  S
Zn533       O541   1.996       .  S
Zn533       O544   1.980       .  S
Zn533       O545   2.075       .  S
O535        C547   1.275       .  A
O536        C548   1.279       .  A
O537        C549   1.279       .  A
O538        C547   1.277       .  A
O539        C549   1.278       .  A
O540        C548   1.279       .  A
O541        C550   1.277       .  A
O542        C551   1.270       .  A
O543        C550   1.272       .  A
O544        C551   1.273       .  A
O545        C552   1.276       .  A
O546        C552   1.281       .  A
C547       C2186   1.471       .  S
C548       C1779   1.512       .  S
C549       C1646   1.478       .  S
C550       C1699   1.452       .  S
C551       C1739   1.449       .  S
C552       C1679   1.516       .  S
Zn553       O557   1.939       .  S
Zn553       O558   1.994       .  S
Zn553       O562   2.096       .  S
Zn553       O569   1.987       .  S
Zn554       O557   1.978   1_545  S
Zn554       O559   2.036       .  S
Zn554       O561   2.033   1_545  S
Zn554       O565   2.114   1_545  S
Zn555       O557   1.908   1_545  S
Zn555       O560   2.076       .  S
Zn555       O563   1.972       .  S
Zn555       O566   1.946       .  S
Zn556       O557   1.920       .  S
Zn556       O564   2.024   1_565  S
Zn556       O567   2.007       .  S
Zn556       O568   1.992       .  S
O558        C570   1.277       .  A
O559        C571   1.278       .  A
O560        C572   1.277       .  A
O561        C570   1.278       .  A
O562        C572   1.278   1_565  A
O563        C571   1.274       .  A
O564        C573   1.276       .  A
O565        C574   1.282       .  A
O566        C573   1.267       .  A
O567        C574   1.272       .  A
O568        C575   1.276       .  A
O569        C575   1.272       .  A
C570       C2119   1.466       .  S
C571       C1626   1.466       .  S
C572       C1636   1.517       .  S
C573       C1606   1.467       .  S
C574       C1719   1.505       .  S
C575       C1616   1.463       .  S
Zn576       O580   1.922       .  S
Zn576       O581   2.005       .  S
Zn576       O585   1.988   1_545  S
Zn576       O592   2.102       .  S
Zn577       O580   1.933       .  S
Zn577       O582   2.078       .  S
Zn577       O584   2.021       .  S
Zn577       O588   1.995       .  S
Zn578       O580   1.928   1_565  S
Zn578       O583   2.010       .  S
Zn578       O586   2.042       .  S
Zn578       O589   1.972       .  S
Zn579       O580   1.909       .  S
Zn579       O587   2.003   1_545  S
Zn579       O590   1.981       .  S
Zn579       O591   2.070       .  S
O581        C593   1.279       .  A
O582        C594   1.280       .  A
O583        C595   1.275       .  A
O584        C593   1.279       .  A
O585        C595   1.275       .  A
O586        C594   1.276   1_565  A
O587        C596   1.276       .  A
O588        C597   1.270       .  A
O589        C596   1.270       .  A
O590        C597   1.274       .  A
O591        C598   1.277       .  A
O592        C598   1.281       .  A
C593       C1586   1.476       .  S
C594       C1596   1.506       .  S
C595       C2159   1.472       .  S
C596       C1576   1.450       .  S
C597       C1566   1.447       .  S
C598       C1639   1.513       .  S
Zn599       O603   1.918       .  S
Zn599       O604   2.004       .  S
Zn599       O608   2.028       .  S
Zn599       O615   2.033       .  S
Zn600       O603   1.928       .  S
Zn600       O605   1.981       .  S
Zn600       O607   1.967       .  S
Zn600       O611   2.080       .  S
Zn601       O603   1.971       .  S
Zn601       O606   2.129       .  S
Zn601       O609   2.052       .  S
Zn601       O612   2.057       .  S
Zn602       O603   1.909       .  S
Zn602       O610   1.966       .  S
Zn602       O613   2.085       .  S
Zn602       O614   1.954       .  S
O604        C616   1.278       .  A
O605        C617   1.276       .  A
O606        C618   1.286       .  A
O607        C616   1.270       .  A
O608        C618   1.273       .  A
O609        C617   1.280       .  A
O610        C619   1.274       .  A
O611        C620   1.276       .  A
O612        C619   1.280       .  A
O613        C620   1.277       .  A
O614        C621   1.270       .  A
O615        C621   1.278       .  A
C616       C1609   1.457       .  S
C617       C1659   1.467       .  S
C618       C1546   1.507       .  S
C619       C1536   1.472       .  S
C620       C1556   1.519       .  S
C621       C1569   1.466       .  S
Zn622       O626   1.928       .  S
Zn622       O627   1.986       .  S
Zn622       O631   2.103       .  S
Zn622       O638   1.975       .  S
Zn623       O626   1.977       .  S
Zn623       O628   2.056       .  S
Zn623       O630   2.047       .  S
Zn623       O634   2.135       .  S
Zn624       O626   1.916       .  S
Zn624       O629   2.065       .  S
Zn624       O632   1.968       .  S
Zn624       O635   1.960       .  S
Zn625       O626   1.914       .  S
Zn625       O633   2.010       .  S
Zn625       O636   2.017       .  S
Zn625       O637   2.005       .  S
O627        C639   1.275       .  A
O628        C640   1.281       .  A
O629        C641   1.274       .  A
O630        C639   1.279       .  A
O631        C641   1.278       .  A
O632        C640   1.273       .  A
O633        C642   1.277       .  A
O634        C643   1.285       .  A
O635        C642   1.269       .  A
O636        C643   1.273       .  A
O637        C644   1.276       .  A
O638        C644   1.273       .  A
C639       C1649   1.462       .  S
C640       C1526   1.465       .  S
C641       C1559   1.519       .  S
C642       C1579   1.460       .  S
C643       C2079   1.512       .  S
C644       C1619   1.467       .  S
Zn645       O649   1.970   1_554  S
Zn645       O650   2.038   1_554  S
Zn645       O654   2.036       .  S
Zn645       O661   2.119   1_554  S
Zn646       O649   1.924       .  S
Zn646       O651   2.073       .  S
Zn646       O653   1.986       .  S
Zn646       O657   1.962       .  S
Zn647       O649   1.921   1_554  S
Zn647       O652   1.979       .  S
Zn647       O655   2.092       .  S
Zn647       O658   1.943       .  S
Zn648       O649   1.922       .  S
Zn648       O656   2.033   1_556  S
Zn648       O659   2.018       .  S
Zn648       O660   2.029       .  S
O650        C662   1.279       .  A
O651        C663   1.275   1_556  A
O652        C664   1.275       .  A
O653        C662   1.277       .  A
O654        C664   1.278       .  A
O655        C663   1.278       .  A
O656        C665   1.278       .  A
O657        C666   1.269       .  A
O658        C665   1.268       .  A
O659        C666   1.279       .  A
O660        C667   1.275       .  A
O661        C667   1.283       .  A
C662       C2339   1.464       .  S
C663       C1516   1.518   1_554  S
C664       C1629   1.464       .  S
C665       C1496   1.467       .  S
C666       C1506   1.456       .  S
C667       C1989   1.509       .  S
Zn668       O672   1.972       .  S
Zn668       O673   2.123       .  S
Zn668       O677   2.054   1_556  S
Zn668       O684   2.053       .  S
Zn669       O672   1.938   1_554  S
Zn669       O674   2.010       .  S
Zn669       O676   2.015       .  S
Zn669       O680   2.013   1_554  S
Zn670       O672   1.921   1_554  S
Zn670       O675   1.968       .  S
Zn670       O678   1.969       .  S
Zn670       O681   2.068       .  S
Zn671       O672   1.924       .  S
Zn671       O679   2.095       .  S
Zn671       O682   1.954       .  S
Zn671       O683   1.988       .  S
O673        C685   1.284   1_556  A
O674        C686   1.276       .  A
O675        C687   1.273       .  A
O676        C685   1.272       .  A
O677        C687   1.280       .  A
O678        C686   1.270       .  A
O679        C688   1.279       .  A
O680        C689   1.275       .  A
O681        C688   1.275   1_554  A
O682        C689   1.271       .  A
O683        C690   1.275       .  A
O684        C690   1.280       .  A
C685       C1486   1.505       .  S
C686       C1466   1.462       .  S
C687       C1589   1.463       .  S
C688       C1519   1.517       .  S
C689       C1476   1.461       .  S
C690       C2279   1.480       .  S
Zn691       O695   1.928       .  S
Zn691       O696   1.986       .  S
Zn691       O700   2.083       .  S
Zn691       O707   1.998       .  S
Zn692       O695   1.945       .  S
Zn692       O697   2.028       .  S
Zn692       O699   1.998       .  S
Zn692       O703   2.085       .  S
Zn693       O695   1.934       .  S
Zn693       O698   2.100       .  S
Zn693       O701   2.006       .  S
Zn693       O704   1.984       .  S
Zn694       O695   1.959       .  S
Zn694       O702   2.038       .  S
Zn694       O705   2.074       .  S
Zn694       O706   1.988       .  S
O696        C708   1.274       .  A
O697        C709   1.279       .  A
O698        C710   1.279       .  A
O699        C708   1.270       .  A
O700        C710   1.278       .  A
O701        C709   1.278       .  A
O702        C711   1.278       .  A
O703        C712   1.281       .  A
O704        C711   1.274       .  A
O705        C712   1.279       .  A
O706        C713   1.272       .  A
O707        C713   1.276       .  A
C708       C1499   1.448       .  S
C709       C1929   1.478       .  S
C710       C1459   1.518       .  S
C711       C1446   1.473       .  S
C712       C1549   1.513       .  S
C713       C1469   1.456       .  S
Zn714       O718   1.900       .  S
Zn714       O719   2.013       .  S
Zn714       O723   2.035       .  S
Zn714       O730   2.017       .  S
Zn715       O718   1.930       .  S
Zn715       O720   2.099       .  S
Zn715       O722   1.962       .  S
Zn715       O726   1.986       .  S
Zn716       O718   1.882       .  S
Zn716       O721   1.940       .  S
Zn716       O724   2.081       .  S
Zn716       O727   1.974       .  S
Zn717       O718   1.962       .  S
Zn717       O725   2.064       .  S
Zn717       O728   2.055       .  S
Zn717       O729   2.142       .  S
O719        C731   1.279       .  A
O720        C732   1.278       .  A
O721        C733   1.268       .  A
O722        C731   1.269       .  A
O723        C733   1.280       .  A
O724        C732   1.277       .  A
O725        C734   1.282       .  A
O726        C735   1.278       .  A
O727        C734   1.275       .  A
O728        C735   1.282       .  A
O729        C736   1.286       .  A
O730        C736   1.275       .  A
C731       C1479   1.456       .  S
C732       C1456   1.520       .  S
C733       C1509   1.467       .  S
C734       C1919   1.469       .  S
C735       C1436   1.470       .  S
C736       C2239   1.517       .  S
Zn737       O741   1.928   1_554  S
Zn737       O742   1.970       .  S
Zn737       O746   2.043       .  S
Zn737       O753   2.021       .  S
Zn738       O741   1.914       .  S
Zn738       O743   2.000       .  S
Zn738       O745   1.970   1_556  S
Zn738       O749   2.073       .  S
Zn739       O741   1.936       .  S
Zn739       O744   2.100       .  S
Zn739       O747   1.999       .  S
Zn739       O750   2.035       .  S
Zn740       O741   1.917       .  S
Zn740       O748   1.976       .  S
Zn740       O751   2.094       .  S
Zn740       O752   1.986   1_556  S
O742        C754   1.269       .  A
O743        C755   1.275       .  A
O744        C756   1.282       .  A
O745        C754   1.274       .  A
O746        C756   1.278   1_554  A
O747        C755   1.272       .  A
O748        C757   1.276       .  A
O749        C758   1.276       .  A
O750        C757   1.281       .  A
O751        C758   1.278       .  A
O752        C759   1.274       .  A
O753        C759   1.277       .  A
C754       C1396   1.445       .  S
C755       C1406   1.453       .  S
C756       C1489   1.510   1_556  S
C757       C2469   1.473       .  S
C758       C1426   1.511       .  S
C759       C1419   1.473       .  S
Zn760       O764   1.930       .  S
Zn760       O765   2.082       .  S
Zn760       O769   1.972       .  S
Zn760       O776   1.991       .  S
Zn761       O764   1.922   1_554  S
Zn761       O766   1.964       .  S
Zn761       O768   2.077       .  S
Zn761       O772   1.962       .  S
Zn762       O764   1.928       .  S
Zn762       O767   2.006       .  S
Zn762       O770   2.023   1_556  S
Zn762       O773   2.004       .  S
Zn763       O764   1.985       .  S
Zn763       O771   2.136       .  S
Zn763       O774   2.066   1_556  S
Zn763       O775   2.059       .  S
O765        C777   1.277       .  A
O766        C778   1.270       .  A
O767        C779   1.276       .  A
O768        C777   1.276   1_554  A
O769        C779   1.270       .  A
O770        C778   1.275       .  A
O771        C780   1.285       .  A
O772        C781   1.273       .  A
O773        C780   1.273       .  A
O774        C781   1.282       .  A
O775        C782   1.281       .  A
O776        C782   1.276       .  A
C777       C1429   1.511       .  S
C778       C1366   1.468       .  S
C779       C1376   1.463       .  S
C780       C2169   1.509       .  S
C781       C1386   1.480       .  S
C782       C2509   1.469       .  S
Zn783       O787   1.899       .  S
Zn783       O788   2.089       .  S
Zn783       O792   1.957       .  S
Zn783       O799   1.987       .  S
Zn784       O787   1.937       .  S
Zn784       O789   1.993       .  S
Zn784       O791   2.105       .  S
Zn784       O795   2.001       .  S
Zn785       O787   1.915       .  S
Zn785       O790   2.003       .  S
Zn785       O793   1.994       .  S
Zn785       O796   2.028       .  S
Zn786       O787   1.958       .  S
Zn786       O794   2.120       .  S
Zn786       O797   2.039       .  S
Zn786       O798   2.043       .  S
O788        C800   1.278       .  A
O789        C801   1.272       .  A
O790        C802   1.276       .  A
O791        C800   1.280       .  A
O792        C802   1.270       .  A
O793        C801   1.276       .  A
O794        C803   1.284       .  A
O795        C804   1.280       .  A
O796        C803   1.273       .  A
O797        C804   1.281       .  A
O798        C805   1.278       .  A
O799        C805   1.275       .  A
C800       C1356   1.523       .  S
C801       C1369   1.466       .  S
C802       C1399   1.451       .  S
C803       C1346   1.506       .  S
C804       C2069   1.469       .  S
C805       C1449   1.475       .  S
Zn806       O810   1.924       .  S
Zn806       O811   2.099       .  S
Zn806       O815   1.995       .  S
Zn806       O822   2.003       .  S
Zn807       O810   1.920       .  S
Zn807       O812   1.991       .  S
Zn807       O814   2.089       .  S
Zn807       O818   1.974       .  S
Zn808       O810   1.938       .  S
Zn808       O813   1.998       .  S
Zn808       O816   2.043       .  S
Zn808       O819   2.066       .  S
Zn809       O810   1.954       .  S
Zn809       O817   2.059       .  S
Zn809       O820   2.022       .  S
Zn809       O821   1.983       .  S
O811        C823   1.280       .  A
O812        C824   1.276       .  A
O813        C825   1.273       .  A
O814        C823   1.279       .  A
O815        C825   1.275       .  A
O816        C824   1.280       .  A
O817        C826   1.277       .  A
O818        C827   1.274       .  A
O819        C826   1.279       .  A
O820        C827   1.277       .  A
O821        C828   1.270       .  A
O822        C828   1.276       .  A
C823       C1359   1.520       .  S
C824       C1439   1.480       .  S
C825       C1409   1.453       .  S
C826       C2419   1.504       .  S
C827       C2049   1.473       .  S
C828       C1379   1.453       .  S
Zn829       O833   1.924       .  S
Zn829       O834   2.086       .  S
Zn829       O838   1.978       .  S
Zn829       O845   1.963       .  S
Zn830       O833   1.897   1_455  S
Zn830       O835   1.977       .  S
Zn830       O837   2.076       .  S
Zn830       O841   1.939       .  S
Zn831       O833   1.970   1_455  S
Zn831       O836   2.055   1_455  S
Zn831       O839   2.054       .  S
Zn831       O842   2.123       .  S
Zn832       O833   1.927       .  S
Zn832       O840   2.011       .  S
Zn832       O843   2.038   1_655  S
Zn832       O844   2.011       .  S
O834        C846   1.276   1_655  A
O835        C847   1.276       .  A
O836        C848   1.281       .  A
O837        C846   1.276       .  A
O838        C848   1.275       .  A
O839        C847   1.281       .  A
O840        C849   1.273       .  A
O841        C850   1.267       .  A
O842        C849   1.284   1_455  A
O843        C850   1.278       .  A
O844        C851   1.277       .  A
O845        C851   1.270       .  A
C846       C1336   1.514       .  S
C847       C1389   1.479       .  S
C848       C2019   1.469       .  S
C849       C1859   1.504       .  S
C850       C1316   1.466       .  S
C851       C1326   1.462       .  S
Zn852       O856   1.958   1_655  S
Zn852       O857   2.081       .  S
Zn852       O861   2.050       .  S
Zn852       O868   1.994       .  S
Zn853       O856   1.926       .  S
Zn853       O858   2.006       .  S
Zn853       O860   2.050       .  S
Zn853       O864   1.978       .  S
Zn854       O856   1.926   1_655  S
Zn854       O859   1.985       .  S
Zn854       O862   2.002   1_655  S
Zn854       O865   2.088       .  S
Zn855       O856   1.930       .  S
Zn855       O863   2.082       .  S
Zn855       O866   2.002       .  S
Zn855       O867   1.993   1_455  S
O857        C869   1.280   1_655  A
O858        C870   1.276       .  A
O859        C871   1.275       .  A
O860        C869   1.278       .  A
O861        C871   1.280       .  A
O862        C870   1.277       .  A
O863        C872   1.278       .  A
O864        C873   1.268       .  A
O865        C872   1.279   1_655  A
O866        C873   1.273       .  A
O867        C874   1.276       .  A
O868        C874   1.272       .  A
C869       C1306   1.505       .  S
C870       C1416   1.472       .  S
C871       C1979   1.482       .  S
C872       C1339   1.513       .  S
C873       C1286   1.450       .  S
C874       C1296   1.454       .  S
Zn875       O879   1.919       .  S
Zn875       O880   2.077       .  S
Zn875       O884   2.011       .  S
Zn875       O891   1.998       .  S
Zn876       O879   1.927       .  S
Zn876       O881   1.987       .  S
Zn876       O883   2.113       .  S
Zn876       O887   1.999       .  S
Zn877       O879   1.936       .  S
Zn877       O882   1.975       .  S
Zn877       O885   2.035       .  S
Zn877       O888   2.086       .  S
Zn878       O879   1.927       .  S
Zn878       O886   2.071       .  S
Zn878       O889   2.025       .  S
Zn878       O890   1.986       .  S
O880        C892   1.278       .  A
O881        C893   1.276       .  A
O882        C894   1.271       .  A
O883        C892   1.281       .  A
O884        C894   1.277       .  A
O885        C893   1.280       .  A
O886        C895   1.280       .  A
O887        C896   1.278       .  A
O888        C895   1.280       .  A
O889        C896   1.279       .  A
O890        C897   1.270       .  A
O891        C897   1.276       .  A
C892       C1276   1.525       .  S
C893       C1266   1.476       .  S
C894       C1289   1.452       .  S
C895       C1349   1.512       .  S
C896       C1786   1.477       .  S
C897       C1319   1.448       .  S
Zn898       O902   1.943       .  S
Zn898       O903   1.975       .  S
Zn898       O907   2.013       .  S
Zn898       O914   2.066       .  S
Zn899       O902   1.915       .  S
Zn899       O904   2.080       .  S
Zn899       O906   1.995       .  S
Zn899       O910   2.000       .  S
Zn900       O902   1.932       .  S
Zn900       O905   2.000       .  S
Zn900       O908   2.117       .  S
Zn900       O911   2.011       .  S
Zn901       O902   1.931       .  S
Zn901       O909   2.023       .  S
Zn901       O912   1.983       .  S
Zn901       O913   2.063       .  S
O903        C915   1.270       .  A
O904        C916   1.279       .  A
O905        C917   1.277       .  A
O906        C915   1.276       .  A
O907        C917   1.277       .  A
O908        C916   1.283       .  A
O909        C918   1.279       .  A
O910        C919   1.274       .  A
O911        C918   1.279       .  A
O912        C919   1.270       .  A
O913        C920   1.278       .  A
O914        C920   1.277       .  A
C915       C1329   1.451       .  S
C916       C1279   1.526       .  S
C917       C1769   1.472       .  S
C918       C1256   1.479       .  S
C919       C1299   1.448       .  S
C920       C1936   1.506       .  S
Zn921       O925   1.951   1_545  S
Zn921       O926   1.981       .  S
Zn921       O930   2.083       .  S
Zn921       O937   2.040       .  S
Zn922       O925   1.930       .  S
Zn922       O927   2.007       .  S
Zn922       O929   2.008   1_565  S
Zn922       O933   2.090       .  S
Zn923       O925   1.935       .  S
Zn923       O928   2.071       .  S
Zn923       O931   1.983       .  S
Zn923       O934   2.030       .  S
Zn924       O925   1.936   1_545  S
Zn924       O932   2.003   1_545  S
Zn924       O935   2.106       .  S
Zn924       O936   1.999       .  S
O926        C938   1.272       .  A
O927        C939   1.276       .  A
O928        C940   1.279       .  A
O929        C938   1.277       .  A
O930        C940   1.279   1_545  A
O931        C939   1.270       .  A
O932        C941   1.277       .  A
O933        C942   1.280   1_565  A
O934        C941   1.279       .  A
O935        C942   1.281       .  A
O936        C943   1.277       .  A
O937        C943   1.280       .  A
C938       C1216   1.459       .  S
C939       C1226   1.450       .  S
C940       C2299   1.511       .  S
C941       C1899   1.480       .  S
C942       C1246   1.526       .  S
C943       C1236   1.477       .  S
Zn944       O948   1.918       .  S
Zn944       O949   2.005   1_565  S
Zn944       O953   2.006       .  S
Zn944       O960   2.083       .  S
Zn945       O948   1.920   1_545  S
Zn945       O950   2.058       .  S
Zn945       O952   1.971       .  S
Zn945       O956   2.016       .  S
Zn946       O948   1.926       .  S
Zn946       O951   1.978       .  S
Zn946       O954   2.066       .  S
Zn946       O957   2.033       .  S
Zn947       O948   1.923       .  S
Zn947       O955   2.020       .  S
Zn947       O958   2.002   1_565  S
Zn947       O959   2.113       .  S
O949        C961   1.275       .  A
O950        C962   1.278       .  A
O951        C963   1.271       .  A
O952        C961   1.269       .  A
O953        C963   1.276       .  A
O954        C962   1.279   1_565  A
O955        C964   1.280       .  A
O956        C965   1.278       .  A
O957        C964   1.280       .  A
O958        C965   1.277       .  A
O959        C966   1.283       .  A
O960        C966   1.280       .  A
C961       C1186   1.448       .  S
C962       C1599   1.506       .  S
C963       C1196   1.451       .  S
C964       C1839   1.484       .  S
C965       C1206   1.476       .  S
C966       C1249   1.525   1_565  S
Zn967       O971   1.926       .  S
Zn967       O972   2.108       .  S
Zn967       O976   2.003       .  S
Zn967       O983   1.993       .  S
Zn968       O971   1.922       .  S
Zn968       O973   2.005       .  S
Zn968       O975   2.082       .  S
Zn968       O979   2.015       .  S
Zn969       O971   1.933       .  S
Zn969       O974   2.024       .  S
Zn969       O977   1.982       .  S
Zn969       O980   2.079       .  S
Zn970       O971   1.924       .  S
Zn970       O978   2.049       .  S
Zn970       O981   1.961       .  S
Zn970       O982   2.021       .  S
O972        C984   1.281       .  A
O973        C985   1.277       .  A
O974        C986   1.279       .  A
O975        C984   1.279       .  A
O976        C986   1.278       .  A
O977        C985   1.270       .  A
O978        C987   1.277       .  A
O979        C988   1.277       .  A
O980        C987   1.280       .  A
O981        C988   1.270       .  A
O982        C989   1.277       .  A
O983        C989   1.276       .  A
C984       C1176   1.524       .  S
C985       C1219   1.448       .  S
C986       C2226   1.477       .  S
C987       C1166   1.508       .  S
C988       C1189   1.453       .  S
C989       C1539   1.475       .  S
Zn990       O994   1.934       .  S
Zn990       O995   2.021       .  S
Zn990       O999   2.004       .  S
Zn990      O1006   2.118       .  S
Zn991       O994   1.921       .  S
Zn991       O996   2.046       .  S
Zn991       O998   2.007       .  S
Zn991      O1002   1.975       .  S
Zn992       O994   1.947       .  S
Zn992       O997   2.033       .  S
Zn992      O1000   2.086       .  S
Zn992      O1003   1.982       .  S
Zn993       O994   1.922       .  S
Zn993      O1001   2.007       .  S
Zn993      O1004   2.011       .  S
Zn993      O1005   2.076       .  S
O995       C1007   1.280       .  A
O996       C1008   1.277       .  A
O997       C1009   1.280       .  A
O998       C1007   1.276       .  A
O999       C1009   1.278       .  A
O1000      C1008   1.280       .  A
O1001      C1010   1.276       .  A
O1002      C1011   1.269       .  A
O1003      C1010   1.271       .  A
O1004      C1011   1.276       .  A
O1005      C1012   1.279       .  A
O1006      C1012   1.284       .  A
C1007      C1529   1.477       .  S
C1008      C1799   1.507       .  S
C1009      C2199   1.479       .  S
C1010      C1229   1.455       .  S
C1011      C1199   1.451       .  S
C1012      C1179   1.525       .  S
Zn1013     O1017   1.948       .  S
Zn1013     O1018   2.037       .  S
Zn1013     O1022   2.104       .  S
Zn1013     O1029   1.992       .  S
Zn1014     O1017   1.933       .  S
Zn1014     O1019   1.991   1_455  S
Zn1014     O1021   2.001       .  S
Zn1014     O1025   2.114   1_455  S
Zn1015     O1017   1.944   1_655  S
Zn1015     O1020   2.066       .  S
Zn1015     O1023   2.035       .  S
Zn1015     O1026   1.981       .  S
Zn1016     O1017   1.924       .  S
Zn1016     O1024   1.982   1_455  S
Zn1016     O1027   2.069       .  S
Zn1016     O1028   2.002       .  S
O1018      C1030   1.281       .  A
O1019      C1031   1.275       .  A
O1020      C1032   1.279       .  A
O1021      C1030   1.278       .  A
O1022      C1032   1.283   1_455  A
O1023      C1031   1.279       .  A
O1024      C1033   1.274       .  A
O1025      C1034   1.280   1_655  A
O1026      C1033   1.269       .  A
O1027      C1034   1.276       .  A
O1028      C1035   1.275       .  A
O1029      C1035   1.271       .  A
C1030      C1239   1.477       .  S
C1031      C1749   1.479       .  S
C1032      C2479   1.515       .  S
C1033      C1146   1.443       .  S
C1034      C1156   1.516       .  S
C1035      C1136   1.454       .  S
Zn1036     O1040   1.908       .  S
Zn1036     O1041   2.074       .  S
Zn1036     O1045   1.966       .  S
Zn1036     O1052   1.969       .  S
Zn1037     O1040   1.932   1_655  S
Zn1037     O1042   1.962       .  S
Zn1037     O1044   2.101       .  S
Zn1037     O1048   1.979       .  S
Zn1038     O1040   1.928       .  S
Zn1038     O1043   1.996       .  S
Zn1038     O1046   1.997   1_455  S
Zn1038     O1049   2.001       .  S
Zn1039     O1040   1.974       .  S
Zn1039     O1047   2.118       .  S
Zn1039     O1050   2.046   1_455  S
Zn1039     O1051   2.048       .  S
O1041      C1053   1.276       .  A
O1042      C1054   1.271       .  A
O1043      C1055   1.274       .  A
O1044      C1053   1.278   1_655  A
O1045      C1055   1.269       .  A
O1046      C1054   1.274       .  A
O1047      C1056   1.283       .  A
O1048      C1057   1.275       .  A
O1049      C1056   1.269       .  A
O1050      C1057   1.279       .  A
O1051      C1058   1.280       .  A
O1052      C1058   1.274       .  A
C1053      C1159   1.516       .  S
C1054      C1126   1.462       .  S
C1055      C1116   1.462       .  S
C1056      C1309   1.496       .  S
C1057      C1709   1.470       .  S
C1058      C1209   1.464       .  S
Zn1059     O1063   1.925       .  S
Zn1059     O1064   2.005       .  S
Zn1059     O1068   2.008       .  S
Zn1059     O1075   2.090       .  S
Zn1060     O1063   1.937       .  S
Zn1060     O1065   2.069       .  S
Zn1060     O1067   1.989       .  S
Zn1060     O1071   2.025       .  S
Zn1061     O1063   1.944       .  S
Zn1061     O1066   1.969       .  S
Zn1061     O1069   2.057       .  S
Zn1061     O1072   2.023       .  S
Zn1062     O1063   1.926       .  S
Zn1062     O1070   1.994       .  S
Zn1062     O1073   1.994       .  S
Zn1062     O1074   2.090       .  S
O1064      C1076   1.275       .  A
O1065      C1077   1.278       .  A
O1066      C1078   1.268       .  A
O1067      C1076   1.271       .  A
O1068      C1078   1.277       .  A
O1069      C1077   1.278       .  A
O1070      C1079   1.276       .  A
O1071      C1080   1.278       .  A
O1072      C1079   1.277       .  A
O1073      C1080   1.276       .  A
O1074      C1081   1.279       .  A
O1075      C1081   1.279       .  A
C1076      C1139   1.452       .  S
C1077      C1169   1.507       .  S
C1078      C1119   1.446       .  S
C1079      C1269   1.475       .  S
C1080      C2409   1.476       .  S
C1081      C1106   1.514       .  S
Zn1082     O1086   1.915       .  S
Zn1082     O1087   1.992       .  S
Zn1082     O1091   2.005       .  S
Zn1082     O1098   2.007       .  S
Zn1083     O1086   1.929       .  S
Zn1083     O1088   1.969       .  S
Zn1083     O1090   1.969       .  S
Zn1083     O1094   2.075       .  S
Zn1084     O1086   1.977       .  S
Zn1084     O1089   2.143       .  S
Zn1084     O1092   2.058       .  S
Zn1084     O1095   2.050       .  S
Zn1085     O1086   1.918       .  S
Zn1085     O1093   1.997       .  S
Zn1085     O1096   2.102       .  S
Zn1085     O1097   1.957       .  S
O1087      C1099   1.275       .  A
O1088      C1100   1.274       .  A
O1089      C1101   1.285       .  A
O1090      C1099   1.269       .  A
O1091      C1101   1.272       .  A
O1092      C1100   1.281       .  A
O1093      C1102   1.278       .  A
O1094      C1103   1.275       .  A
O1095      C1102   1.280       .  A
O1096      C1103   1.279       .  A
O1097      C1104   1.269       .  A
O1098      C1104   1.275       .  A
C1099      C1129   1.459       .  S
C1100      C1259   1.468       .  S
C1101      C1666   1.513       .  S
C1102      C2379   1.473       .  S
C1103      C1109   1.518       .  S
C1104      C1149   1.462       .  S
C1105      C1106   1.411       .  A
C1105      C1110   1.416   1_455  A
C1105      H1111   1.083       .  S
C1106      C1107   1.410       .  A
C1107      C1108   1.416   1_455  A
C1107      H1112   1.083       .  S
C1108      C1109   1.413       .  A
C1108      H1113   1.083       .  S
C1109      C1110   1.412       .  A
C1110      H1114   1.083       .  S
C1115      C1116   1.406       .  A
C1115      C1120   1.388       .  A
C1115      H1121   1.083       .  S
C1116      C1117   1.403       .  A
C1117      C1118   1.391       .  A
C1117      H1122   1.083       .  S
C1118      C1119   1.400       .  A
C1118      H1123   1.084       .  S
C1119      C1120   1.395       .  A
C1120      H1124   1.083       .  S
C1125      C1126   1.401       .  A
C1125      C1130   1.390       .  A
C1125      H1131   1.084       .  S
C1126      C1127   1.405       .  A
C1127      C1128   1.387       .  A
C1127      H1132   1.083       .  S
C1128      C1129   1.399       .  A
C1128      H1133   1.084       .  S
C1129      C1130   1.405       .  A
C1130      H1134   1.083       .  S
C1135      C1136   1.399       .  A
C1135      C1140   1.393       .  A
C1135      H1141   1.083       .  S
C1136      C1137   1.403       .  A
C1137      C1138   1.393       .  A
C1137      H1142   1.084       .  S
C1138      C1139   1.398       .  A
C1138      H1143   1.083       .  S
C1139      C1140   1.402       .  A
C1140      H1144   1.084       .  S
C1145      C1146   1.394       .  A
C1145      C1150   1.390       .  A
C1145      H1151   1.083       .  S
C1146      C1147   1.400       .  A
C1147      C1148   1.389       .  A
C1147      H1152   1.084       .  S
C1148      C1149   1.401       .  A
C1148      H1153   1.083       .  S
C1149      C1150   1.408       .  A
C1150      H1154   1.083       .  S
C1155      C1156   1.410       .  A
C1155      C1160   1.412       .  A
C1155      H1161   1.083       .  S
C1156      C1157   1.413   1_455  A
C1157      C1158   1.420       .  A
C1157      H1162   1.083       .  S
C1158      C1159   1.413   1_655  A
C1158      H1163   1.083       .  S
C1159      C1160   1.410       .  A
C1160      H1164   1.083       .  S
C1165      C1166   1.410       .  A
C1165      C1170   1.412       .  A
C1165      H1171   1.083       .  S
C1166      C1167   1.410       .  A
C1167      C1168   1.407       .  A
C1167      H1172   1.083       .  S
C1168      C1169   1.409       .  A
C1168      H1173   1.083       .  S
C1169      C1170   1.411       .  A
C1170      H1174   1.083       .  S
C1175      C1176   1.412       .  A
C1175      C1180   1.413   1_545  A
C1175      H1181   1.083       .  S
C1176      C1177   1.415       .  A
C1177      C1178   1.421   1_545  A
C1177      H1182   1.083       .  S
C1178      C1179   1.414       .  A
C1178      H1183   1.082       .  S
C1179      C1180   1.413       .  A
C1180      H1184   1.083       .  S
C1185      C1186   1.396       .  A
C1185      C1190   1.389       .  A
C1185      H1191   1.083       .  S
C1186      C1187   1.403       .  A
C1187      C1188   1.392       .  A
C1187      H1192   1.084       .  S
C1188      C1189   1.398       .  A
C1188      H1193   1.083       .  S
C1189      C1190   1.404       .  A
C1190      H1194   1.084       .  S
C1195      C1196   1.402       .  A
C1195      C1200   1.391       .  A
C1195      H1201   1.084       .  S
C1196      C1197   1.399       .  A
C1197      C1198   1.392       .  A
C1197      H1202   1.083       .  S
C1198      C1199   1.402       .  A
C1198      H1203   1.084       .  S
C1199      C1200   1.398       .  A
C1200      H1204   1.083       .  S
C1205      C1206   1.408       .  A
C1205      C1210   1.401       .  A
C1205      H1211   1.083       .  S
C1206      C1207   1.404       .  A
C1207      C1208   1.388       .  A
C1207      H1212   1.083       .  S
C1208      C1209   1.401       .  A
C1208      H1213   1.084       .  S
C1209      C1210   1.402       .  A
C1210      H1214   1.083       .  S
C1215      C1216   1.400       .  A
C1215      C1220   1.390       .  A
C1215      H1221   1.083       .  S
C1216      C1217   1.406       .  A
C1217      C1218   1.393       .  A
C1217      H1222   1.084       .  S
C1218      C1219   1.396       .  A
C1218      H1223   1.083       .  S
C1219      C1220   1.401       .  A
C1220      H1224   1.085       .  S
C1225      C1226   1.398       .  A
C1225      C1230   1.392       .  A
C1225      H1231   1.083       .  S
C1226      C1227   1.401       .  A
C1227      C1228   1.392       .  A
C1227      H1232   1.084       .  S
C1228      C1229   1.399       .  A
C1228      H1233   1.083       .  S
C1229      C1230   1.403       .  A
C1230      H1234   1.084       .  S
C1235      C1236   1.404       .  A
C1235      C1240   1.390       .  A
C1235      H1241   1.083       .  S
C1236      C1237   1.406       .  A
C1237      C1238   1.404       .  A
C1237      H1242   1.083       .  S
C1238      C1239   1.407       .  A
C1238      H1243   1.083       .  S
C1239      C1240   1.404       .  A
C1240      H1244   1.083       .  S
C1245      C1246   1.413       .  A
C1245      C1250   1.415   1_545  A
C1245      H1251   1.083       .  S
C1246      C1247   1.414       .  A
C1247      C1248   1.420       .  A
C1247      H1252   1.083       .  S
C1248      C1249   1.414       .  A
C1248      H1253   1.083       .  S
C1249      C1250   1.414   1_545  A
C1250      H1254   1.083       .  S
C1255      C1256   1.404       .  A
C1255      C1260   1.389       .  A
C1255      H1261   1.083       .  S
C1256      C1257   1.409       .  A
C1257      C1258   1.403       .  A
C1257      H1262   1.083       .  S
C1258      C1259   1.403       .  A
C1258      H1263   1.083       .  S
C1259      C1260   1.402       .  A
C1260      H1264   1.084       .  S
C1265      C1266   1.405       .  A
C1265      C1270   1.402       .  A
C1265      H1271   1.083       .  S
C1266      C1267   1.404       .  A
C1267      C1268   1.388       .  A
C1267      H1272   1.083       .  S
C1268      C1269   1.403       .  A
C1268      H1273   1.084       .  S
C1269      C1270   1.407       .  A
C1270      H1274   1.082       .  S
C1275      C1276   1.415       .  A
C1275      C1280   1.422   1_455  A
C1275      H1281   1.083       .  S
C1276      C1277   1.412       .  A
C1277      C1278   1.412   1_455  A
C1277      H1282   1.083       .  S
C1278      C1279   1.412       .  A
C1278      H1283   1.083       .  S
C1279      C1280   1.415       .  A
C1280      H1284   1.083       .  S
C1285      C1286   1.397       .  A
C1285      C1290   1.391       .  A
C1285      H1291   1.083       .  S
C1286      C1287   1.403       .  A
C1287      C1288   1.392       .  A
C1287      H1292   1.083       .  S
C1288      C1289   1.398       .  A
C1288      H1293   1.083       .  S
C1289      C1290   1.404       .  A
C1290      H1294   1.084       .  S
C1295      C1296   1.403       .  A
C1295      C1300   1.394       .  A
C1295      H1301   1.084       .  S
C1296      C1297   1.399       .  A
C1297      C1298   1.389       .  A
C1297      H1302   1.084       .  S
C1298      C1299   1.400       .  A
C1298      H1303   1.084       .  S
C1299      C1300   1.398       .  A
C1300      H1304   1.083       .  S
C1305      C1306   1.412   1_655  A
C1305      C1310   1.415       .  A
C1305      H1311   1.083       .  S
C1306      C1307   1.409       .  A
C1307      C1308   1.404       .  A
C1307      H1312   1.083       .  S
C1308      C1309   1.407       .  A
C1308      H1313   1.084       .  S
C1309      C1310   1.408   1_455  A
C1310      H1314   1.082       .  S
C1315      C1316   1.410       .  A
C1315      C1320   1.390       .  A
C1315      H1321   1.084       .  S
C1316      C1317   1.400       .  A
C1317      C1318   1.393       .  A
C1317      H1322   1.083       .  S
C1318      C1319   1.403       .  A
C1318      H1323   1.084       .  S
C1319      C1320   1.393       .  A
C1320      H1324   1.083       .  S
C1325      C1326   1.402       .  A
C1325      C1330   1.392       .  A
C1325      H1331   1.083       .  S
C1326      C1327   1.406       .  A
C1327      C1328   1.387       .  A
C1327      H1332   1.084       .  S
C1328      C1329   1.397       .  A
C1328      H1333   1.083       .  S
C1329      C1330   1.402       .  A
C1330      H1334   1.084       .  S
C1335      C1336   1.411       .  A
C1335      C1340   1.413       .  A
C1335      H1341   1.083       .  S
C1336      C1337   1.412   1_455  A
C1337      C1338   1.416       .  A
C1337      H1342   1.083       .  S
C1338      C1339   1.412   1_655  A
C1338      H1343   1.083       .  S
C1339      C1340   1.410       .  A
C1340      H1344   1.083       .  S
C1345      C1346   1.409       .  A
C1345      C1350   1.417       .  A
C1345      H1351   1.083       .  S
C1346      C1347   1.409       .  A
C1347      C1348   1.408       .  A
C1347      H1352   1.083       .  S
C1348      C1349   1.409       .  A
C1348      H1353   1.083       .  S
C1349      C1350   1.414       .  A
C1350      H1354   1.083       .  S
C1355      C1356   1.413       .  A
C1355      C1360   1.418   1_554  A
C1355      H1361   1.083       .  S
C1356      C1357   1.414       .  A
C1357      C1358   1.417   1_554  A
C1357      H1362   1.083       .  S
C1358      C1359   1.411       .  A
C1358      H1363   1.083       .  S
C1359      C1360   1.412       .  A
C1360      H1364   1.083       .  S
C1365      C1366   1.406       .  A
C1365      C1370   1.389       .  A
C1365      H1371   1.083       .  S
C1366      C1367   1.402       .  A
C1367      C1368   1.395       .  A
C1367      H1372   1.083       .  S
C1368      C1369   1.406       .  A
C1368      H1373   1.083       .  S
C1369      C1370   1.400       .  A
C1370      H1374   1.084       .  S
C1375      C1376   1.403       .  A
C1375      C1380   1.394       .  A
C1375      H1381   1.082       .  S
C1376      C1377   1.405       .  A
C1377      C1378   1.388       .  A
C1377      H1382   1.084       .  S
C1378      C1379   1.397       .  A
C1378      H1383   1.083       .  S
C1379      C1380   1.402       .  A
C1380      H1384   1.084       .  S
C1385      C1386   1.405       .  A
C1385      C1390   1.386       .  A
C1385      H1391   1.083       .  S
C1386      C1387   1.406       .  A
C1387      C1388   1.406       .  A
C1387      H1392   1.083       .  S
C1388      C1389   1.408       .  A
C1388      H1393   1.083       .  S
C1389      C1390   1.403       .  A
C1390      H1394   1.083       .  S
C1395      C1396   1.401       .  A
C1395      C1400   1.384       .  A
C1395      H1401   1.084       .  S
C1396      C1397   1.396       .  A
C1397      C1398   1.392       .  A
C1397      H1402   1.083       .  S
C1398      C1399   1.407       .  A
C1398      H1403   1.083       .  S
C1399      C1400   1.398       .  A
C1400      H1404   1.084       .  S
C1405      C1406   1.399       .  A
C1405      C1410   1.393       .  A
C1405      H1411   1.083       .  S
C1406      C1407   1.402       .  A
C1407      C1408   1.392       .  A
C1407      H1412   1.085       .  S
C1408      C1409   1.400       .  A
C1408      H1413   1.083       .  S
C1409      C1410   1.402       .  A
C1410      H1414   1.084       .  S
C1415      C1416   1.402       .  A
C1415      C1420   1.389       .  A
C1415      H1421   1.083       .  S
C1416      C1417   1.406       .  A
C1417      C1418   1.399       .  A
C1417      H1422   1.083       .  S
C1418      C1419   1.404       .  A
C1418      H1423   1.083       .  S
C1419      C1420   1.405       .  A
C1420      H1424   1.083       .  S
C1425      C1426   1.411   1_554  A
C1425      C1430   1.415       .  A
C1425      H1431   1.083       .  S
C1426      C1427   1.410       .  A
C1427      C1428   1.414       .  A
C1427      H1432   1.083       .  S
C1428      C1429   1.411       .  A
C1428      H1433   1.083       .  S
C1429      C1430   1.410   1_556  A
C1430      H1434   1.083       .  S
C1435      C1436   1.400       .  A
C1435      C1440   1.389       .  A
C1435      H1441   1.084       .  S
C1436      C1437   1.405       .  A
C1437      C1438   1.404       .  A
C1437      H1442   1.083       .  S
C1438      C1439   1.407       .  A
C1438      H1443   1.083       .  S
C1439      C1440   1.406       .  A
C1440      H1444   1.083       .  S
C1445      C1446   1.406       .  A
C1445      C1450   1.405       .  A
C1445      H1451   1.082       .  S
C1446      C1447   1.403       .  A
C1447      C1448   1.387       .  A
C1447      H1452   1.084       .  S
C1448      C1449   1.402       .  A
C1448      H1453   1.083       .  S
C1449      C1450   1.407       .  A
C1450      H1454   1.083       .  S
C1455      C1456   1.412       .  A
C1455      C1460   1.414   1_556  A
C1455      H1461   1.083       .  S
C1456      C1457   1.413       .  A
C1457      C1458   1.419   1_556  A
C1457      H1462   1.083       .  S
C1458      C1459   1.412       .  A
C1458      H1463   1.083       .  S
C1459      C1460   1.411       .  A
C1460      H1464   1.083       .  S
C1465      C1466   1.406       .  A
C1465      C1470   1.388       .  A
C1465      H1471   1.083       .  S
C1466      C1467   1.401       .  A
C1467      C1468   1.394       .  A
C1467      H1472   1.084       .  S
C1468      C1469   1.404       .  A
C1468      H1473   1.083       .  S
C1469      C1470   1.397       .  A
C1470      H1474   1.084       .  S
C1475      C1476   1.400       .  A
C1475      C1480   1.392       .  A
C1475      H1481   1.083       .  S
C1476      C1477   1.406       .  A
C1477      C1478   1.387       .  A
C1477      H1482   1.084       .  S
C1478      C1479   1.396       .  A
C1478      H1483   1.083       .  S
C1479      C1480   1.406       .  A
C1480      H1484   1.084       .  S
C1485      C1486   1.408       .  A
C1485      C1490   1.404       .  A
C1485      H1491   1.083       .  S
C1486      C1487   1.410   1_554  A
C1487      C1488   1.418       .  A
C1487      H1492   1.082       .  S
C1488      C1489   1.413   1_556  A
C1488      H1493   1.083       .  S
C1489      C1490   1.409       .  A
C1490      H1494   1.083       .  S
C1495      C1496   1.400       .  A
C1495      C1500   1.393       .  A
C1495      H1501   1.083       .  S
C1496      C1497   1.409       .  A
C1497      C1498   1.390       .  A
C1497      H1502   1.084       .  S
C1498      C1499   1.394       .  A
C1498      H1503   1.083       .  S
C1499      C1500   1.403       .  A
C1500      H1504   1.084       .  S
C1505      C1506   1.405       .  A
C1505      C1510   1.393       .  A
C1505      H1511   1.084       .  S
C1506      C1507   1.395       .  A
C1507      C1508   1.388       .  A
C1507      H1512   1.083       .  S
C1508      C1509   1.409       .  A
C1508      H1513   1.083       .  S
C1509      C1510   1.401       .  A
C1510      H1514   1.083       .  S
C1515      C1516   1.411   1_554  A
C1515      C1520   1.415       .  A
C1515      H1521   1.083       .  S
C1516      C1517   1.413       .  A
C1517      C1518   1.415       .  A
C1517      H1522   1.083       .  S
C1518      C1519   1.410       .  A
C1518      H1523   1.083       .  S
C1519      C1520   1.414   1_556  A
C1520      H1524   1.083       .  S
C1525      C1526   1.401       .  A
C1525      C1530   1.401       .  A
C1525      H1531   1.084       .  S
C1526      C1527   1.402       .  A
C1527      C1528   1.390       .  A
C1527      H1532   1.084       .  S
C1528      C1529   1.403       .  A
C1528      H1533   1.083       .  S
C1529      C1530   1.409       .  A
C1530      H1534   1.083       .  S
C1535      C1536   1.405       .  A
C1535      C1540   1.405       .  A
C1535      H1541   1.083       .  S
C1536      C1537   1.402       .  A
C1537      C1538   1.384       .  A
C1537      H1542   1.083       .  S
C1538      C1539   1.402       .  A
C1538      H1543   1.083       .  S
C1539      C1540   1.408       .  A
C1540      H1544   1.083       .  S
C1545      C1546   1.409       .  A
C1545      C1550   1.416       .  A
C1545      H1551   1.083       .  S
C1546      C1547   1.410       .  A
C1547      C1548   1.410       .  A
C1547      H1552   1.083       .  S
C1548      C1549   1.409       .  A
C1548      H1553   1.083       .  S
C1549      C1550   1.414       .  A
C1550      H1554   1.083       .  S
C1555      C1556   1.414       .  A
C1555      C1560   1.417   1_545  A
C1555      H1561   1.083       .  S
C1556      C1557   1.411       .  A
C1557      C1558   1.413   1_545  A
C1557      H1562   1.082       .  S
C1558      C1559   1.413       .  A
C1558      H1563   1.083       .  S
C1559      C1560   1.412       .  A
C1560      H1564   1.082       .  S
C1565      C1566   1.403       .  A
C1565      C1570   1.393       .  A
C1565      H1571   1.084       .  S
C1566      C1567   1.394       .  A
C1567      C1568   1.391       .  A
C1567      H1572   1.083       .  S
C1568      C1569   1.408       .  A
C1568      H1573   1.083       .  S
C1569      C1570   1.400       .  A
C1570      H1574   1.083       .  S
C1575      C1576   1.396       .  A
C1575      C1580   1.388       .  A
C1575      H1581   1.084       .  S
C1576      C1577   1.402       .  A
C1577      C1578   1.392       .  A
C1577      H1582   1.084       .  S
C1578      C1579   1.401       .  A
C1578      H1583   1.083       .  S
C1579      C1580   1.406       .  A
C1580      H1584   1.083       .  S
C1585      C1586   1.408       .  A
C1585      C1590   1.401       .  A
C1585      H1591   1.082       .  S
C1586      C1587   1.404       .  A
C1587      C1588   1.390       .  A
C1587      H1592   1.084       .  S
C1588      C1589   1.401       .  A
C1588      H1593   1.083       .  S
C1589      C1590   1.402       .  A
C1590      H1594   1.084       .  S
C1595      C1596   1.411   1_565  A
C1595      C1600   1.407       .  A
C1595      H1601   1.083       .  S
C1596      C1597   1.409       .  A
C1597      C1598   1.411       .  A
C1597      H1602   1.083       .  S
C1598      C1599   1.412       .  A
C1598      H1603   1.083       .  S
C1599      C1600   1.408   1_545  A
C1600      H1604   1.083       .  S
C1605      C1606   1.401       .  A
C1605      C1610   1.393       .  A
C1605      H1611   1.083       .  S
C1606      C1607   1.408       .  A
C1607      C1608   1.387       .  A
C1607      H1612   1.083       .  S
C1608      C1609   1.396       .  A
C1608      H1613   1.084       .  S
C1609      C1610   1.405       .  A
C1610      H1614   1.084       .  S
C1615      C1616   1.401       .  A
C1615      C1620   1.389       .  A
C1615      H1621   1.084       .  S
C1616      C1617   1.404       .  A
C1617      C1618   1.392       .  A
C1617      H1622   1.083       .  S
C1618      C1619   1.403       .  A
C1618      H1623   1.084       .  S
C1619      C1620   1.405       .  A
C1620      H1624   1.083       .  S
C1625      C1626   1.401       .  A
C1625      C1630   1.386       .  A
C1625      H1631   1.084       .  S
C1626      C1627   1.405       .  A
C1627      C1628   1.403       .  A
C1627      H1632   1.083       .  S
C1628      C1629   1.405       .  A
C1628      H1633   1.083       .  S
C1629      C1630   1.400       .  A
C1630      H1634   1.084       .  S
C1635      C1636   1.411       .  A
C1635      C1640   1.412       .  A
C1635      H1641   1.083       .  S
C1636      C1637   1.413   1_545  A
C1637      C1638   1.418       .  A
C1637      H1642   1.083       .  S
C1638      C1639   1.411   1_565  A
C1638      H1643   1.083       .  S
C1639      C1640   1.410       .  A
C1640      H1644   1.083       .  S
C1645      C1646   1.408       .  A
C1645      C1650   1.401       .  A
C1645      H1651   1.083       .  S
C1646      C1647   1.405       .  A
C1647      C1648   1.391       .  A
C1647      H1652   1.083       .  S
C1648      C1649   1.400       .  A
C1648      H1653   1.084       .  S
C1649      C1650   1.401       .  A
C1650      H1654   1.083       .  S
C1655      C1656   1.404       .  A
C1655      C1660   1.403       .  A
C1655      H1661   1.083       .  S
C1656      C1657   1.401       .  A
C1657      C1658   1.389       .  A
C1657      H1662   1.084       .  S
C1658      C1659   1.402       .  A
C1658      H1663   1.084       .  S
C1659      C1660   1.405       .  A
C1660      H1664   1.083       .  S
C1665      C1666   1.408       .  A
C1665      C1670   1.398       .  A
C1665      H1671   1.083       .  S
C1666      C1667   1.415       .  A
C1667      C1668   1.426       .  A
C1667      H1672   1.082       .  S
C1668      C1669   1.415       .  A
C1668      H1673   1.083       .  S
C1669      C1670   1.409       .  A
C1670      H1674   1.083       .  S
C1675      C1676   1.412       .  A
C1675      C1680   1.418   1_545  A
C1675      H1681   1.083       .  S
C1676      C1677   1.413       .  A
C1677      C1678   1.416   1_545  A
C1677      H1682   1.083       .  S
C1678      C1679   1.410       .  A
C1678      H1683   1.083       .  S
C1679      C1680   1.412       .  A
C1680      H1684   1.083       .  S
C1685      C1686   1.402       .  A
C1685      C1690   1.393       .  A
C1685      H1691   1.083       .  S
C1686      C1687   1.407       .  A
C1687      C1688   1.387       .  A
C1687      H1692   1.083       .  S
C1688      C1689   1.397       .  A
C1688      H1693   1.084       .  S
C1689      C1690   1.404       .  A
C1690      H1694   1.084       .  S
C1695      C1696   1.404       .  A
C1695      C1700   1.389       .  A
C1695      H1701   1.083       .  S
C1696      C1697   1.402       .  A
C1697      C1698   1.392       .  A
C1697      H1702   1.083       .  S
C1698      C1699   1.401       .  A
C1698      H1703   1.083       .  S
C1699      C1700   1.398       .  A
C1700      H1704   1.084       .  S
C1705      C1706   1.406       .  A
C1705      C1710   1.405       .  A
C1705      H1711   1.083       .  S
C1706      C1707   1.401       .  A
C1707      C1708   1.387       .  A
C1707      H1712   1.084       .  S
C1708      C1709   1.402       .  A
C1708      H1713   1.084       .  S
C1709      C1710   1.406       .  A
C1710      H1714   1.083       .  S
C1715      C1716   1.412   1_545  A
C1715      C1720   1.422       .  A
C1715      H1721   1.082       .  S
C1716      C1717   1.408       .  A
C1717      C1718   1.396       .  A
C1717      H1722   1.083       .  S
C1718      C1719   1.406       .  A
C1718      H1723   1.083       .  S
C1719      C1720   1.413   1_565  A
C1720      H1724   1.082       .  S
C1725      C1726   1.400       .  A
C1725      C1730   1.388       .  A
C1725      H1731   1.084       .  S
C1726      C1727   1.405       .  A
C1727      C1728   1.390       .  A
C1727      H1732   1.083       .  S
C1728      C1729   1.401       .  A
C1728      H1733   1.084       .  S
C1729      C1730   1.405       .  A
C1730      H1734   1.083       .  S
C1735      C1736   1.408       .  A
C1735      C1740   1.392       .  A
C1735      H1741   1.084       .  S
C1736      C1737   1.399       .  A
C1737      C1738   1.389       .  A
C1737      H1742   1.083       .  S
C1738      C1739   1.402       .  A
C1738      H1743   1.084       .  S
C1739      C1740   1.395       .  A
C1740      H1744   1.083       .  S
C1745      C1746   1.399       .  A
C1745      C1750   1.389       .  A
C1745      H1751   1.084       .  S
C1746      C1747   1.403       .  A
C1747      C1748   1.403       .  A
C1747      H1752   1.083       .  S
C1748      C1749   1.407       .  A
C1748      H1753   1.083       .  S
C1749      C1750   1.406       .  A
C1750      H1754   1.083       .  S
C1755      C1756   1.413   1_545  A
C1755      C1760   1.416       .  A
C1755      H1761   1.083       .  S
C1756      C1757   1.414       .  A
C1757      C1758   1.420       .  A
C1757      H1762   1.083       .  S
C1758      C1759   1.415       .  A
C1758      H1763   1.083       .  S
C1759      C1760   1.412   1_565  A
C1760      H1764   1.083       .  S
C1765      C1766   1.405       .  A
C1765      C1770   1.388       .  A
C1765      H1771   1.083       .  S
C1766      C1767   1.405       .  A
C1767      C1768   1.400       .  A
C1767      H1772   1.083       .  S
C1768      C1769   1.406       .  A
C1768      H1773   1.083       .  S
C1769      C1770   1.402       .  A
C1770      H1774   1.083       .  S
C1775      C1776   1.411       .  A
C1775      C1780   1.409       .  A
C1775      H1781   1.083       .  S
C1776      C1777   1.411       .  A
C1777      C1778   1.414       .  A
C1777      H1782   1.083       .  S
C1778      C1779   1.413       .  A
C1778      H1783   1.083       .  S
C1779      C1780   1.410       .  A
C1780      H1784   1.083       .  S
C1785      C1786   1.408       .  A
C1785      C1790   1.402       .  A
C1785      H1791   1.083       .  S
C1786      C1787   1.405       .  A
C1787      C1788   1.388       .  A
C1787      H1792   1.084       .  S
C1788      C1789   1.401       .  A
C1788      H1793   1.084       .  S
C1789      C1790   1.403       .  A
C1790      H1794   1.083       .  S
C1795      C1796   1.409       .  A
C1795      C1800   1.415       .  A
C1795      H1801   1.083       .  S
C1796      C1797   1.407       .  A
C1797      C1798   1.405       .  A
C1797      H1802   1.083       .  S
C1798      C1799   1.409       .  A
C1798      H1803   1.083       .  S
C1799      C1800   1.412       .  A
C1800      H1804   1.083       .  S
C1805      C1806   1.408       .  A
C1805      C1810   1.412   1_655  A
C1805      H1811   1.083       .  S
C1806      C1807   1.409       .  A
C1807      C1808   1.415   1_655  A
C1807      H1812   1.083       .  S
C1808      C1809   1.412       .  A
C1808      H1813   1.083       .  S
C1809      C1810   1.411       .  A
C1810      H1814   1.083       .  S
C1815      C1816   1.401       .  A
C1815      C1820   1.392       .  A
C1815      H1821   1.084       .  S
C1816      C1817   1.407       .  A
C1817      C1818   1.388       .  A
C1817      H1822   1.083       .  S
C1818      C1819   1.398       .  A
C1818      H1823   1.084       .  S
C1819      C1820   1.405       .  A
C1820      H1824   1.083       .  S
C1825      C1826   1.404       .  A
C1825      C1830   1.389       .  A
C1825      H1831   1.084       .  S
C1826      C1827   1.400       .  A
C1827      C1828   1.392       .  A
C1827      H1832   1.083       .  S
C1828      C1829   1.403       .  A
C1828      H1833   1.084       .  S
C1829      C1830   1.398       .  A
C1830      H1834   1.083       .  S
C1835      C1836   1.403       .  A
C1835      C1840   1.390       .  A
C1835      H1841   1.084       .  S
C1836      C1837   1.404       .  A
C1837      C1838   1.406       .  A
C1837      H1842   1.083       .  S
C1838      C1839   1.410       .  A
C1838      H1843   1.083       .  S
C1839      C1840   1.404       .  A
C1840      H1844   1.083       .  S
C1845      C1846   1.402       .  A
C1845      C1850   1.389       .  A
C1845      H1851   1.084       .  S
C1846      C1847   1.404       .  A
C1847      C1848   1.403       .  A
C1847      H1852   1.083       .  S
C1848      C1849   1.405       .  A
C1848      H1853   1.083       .  S
C1849      C1850   1.399       .  A
C1850      H1854   1.084       .  S
C1855      C1856   1.408       .  A
C1855      C1860   1.399       .  A
C1855      H1861   1.084       .  S
C1856      C1857   1.412   1_655  A
C1857      C1858   1.421       .  A
C1857      H1862   1.082       .  S
C1858      C1859   1.412   1_455  A
C1858      H1863   1.083       .  S
C1859      C1860   1.406       .  A
C1860      H1864   1.083       .  S
C1865      C1866   1.397       .  A
C1865      C1870   1.387       .  A
C1865      H1871   1.084       .  S
C1866      C1867   1.407       .  A
C1867      C1868   1.392       .  A
C1867      H1872   1.083       .  S
C1868      C1869   1.399       .  A
C1868      H1873   1.083       .  S
C1869      C1870   1.408       .  A
C1870      H1874   1.083       .  S
C1875      C1876   1.400       .  A
C1875      C1880   1.391       .  A
C1875      H1881   1.083       .  S
C1876      C1877   1.408       .  A
C1877      C1878   1.390       .  A
C1877      H1882   1.083       .  S
C1878      C1879   1.394       .  A
C1878      H1883   1.083       .  S
C1879      C1880   1.402       .  A
C1880      H1884   1.084       .  S
C1885      C1886   1.401       .  A
C1885      C1890   1.387       .  A
C1885      H1891   1.084       .  S
C1886      C1887   1.406       .  A
C1887      C1888   1.405       .  A
C1887      H1892   1.083       .  S
C1888      C1889   1.406       .  A
C1888      H1893   1.083       .  S
C1889      C1890   1.403       .  A
C1890      H1894   1.084       .  S
C1895      C1896   1.402       .  A
C1895      C1900   1.391       .  A
C1895      H1901   1.084       .  S
C1896      C1897   1.403       .  A
C1897      C1898   1.402       .  A
C1897      H1902   1.083       .  S
C1898      C1899   1.407       .  A
C1898      H1903   1.083       .  S
C1899      C1900   1.406       .  A
C1900      H1904   1.083       .  S
C1905      C1906   1.412       .  A
C1905      C1910   1.417       .  A
C1905      H1911   1.083       .  S
C1906      C1907   1.412   1_655  A
C1907      C1908   1.412       .  A
C1907      H1912   1.083       .  S
C1908      C1909   1.410   1_455  A
C1908      H1913   1.083       .  S
C1909      C1910   1.414       .  A
C1910      H1914   1.083       .  S
C1915      C1916   1.409       .  A
C1915      C1920   1.406       .  A
C1915      H1921   1.083       .  S
C1916      C1917   1.405       .  A
C1917      C1918   1.386       .  A
C1917      H1922   1.083       .  S
C1918      C1919   1.399       .  A
C1918      H1923   1.084       .  S
C1919      C1920   1.404       .  A
C1920      H1924   1.083       .  S
C1925      C1926   1.403       .  A
C1925      C1930   1.401       .  A
C1925      H1931   1.083       .  S
C1926      C1927   1.401       .  A
C1927      C1928   1.391       .  A
C1927      H1932   1.084       .  S
C1928      C1929   1.405       .  A
C1928      H1933   1.083       .  S
C1929      C1930   1.407       .  A
C1930      H1934   1.083       .  S
C1935      C1936   1.409       .  A
C1935      C1940   1.407       .  A
C1935      H1941   1.083       .  S
C1936      C1937   1.412       .  A
C1937      C1938   1.414       .  A
C1937      H1942   1.083       .  S
C1938      C1939   1.408       .  A
C1938      H1943   1.083       .  S
C1939      C1940   1.408       .  A
C1940      H1944   1.083       .  S
C1945      C1946   1.411       .  A
C1945      C1950   1.414   1_554  A
C1945      H1951   1.083       .  S
C1946      C1947   1.413       .  A
C1947      C1948   1.417   1_554  A
C1947      H1952   1.083       .  S
C1948      C1949   1.411       .  A
C1948      H1953   1.083       .  S
C1949      C1950   1.411       .  A
C1950      H1954   1.083       .  S
C1955      C1956   1.401       .  A
C1955      C1960   1.390       .  A
C1955      H1961   1.084       .  S
C1956      C1957   1.406       .  A
C1957      C1958   1.387       .  A
C1957      H1962   1.083       .  S
C1958      C1959   1.398       .  A
C1958      H1963   1.084       .  S
C1959      C1960   1.404       .  A
C1960      H1964   1.083       .  S
C1965      C1966   1.404       .  A
C1965      C1970   1.391       .  A
C1965      H1971   1.082       .  S
C1966      C1967   1.405       .  A
C1967      C1968   1.389       .  A
C1967      H1972   1.084       .  S
C1968      C1969   1.397       .  A
C1968      H1973   1.083       .  S
C1969      C1970   1.400       .  A
C1970      H1974   1.085       .  S
C1975      C1976   1.400       .  A
C1975      C1980   1.386       .  A
C1975      H1981   1.083       .  S
C1976      C1977   1.406       .  A
C1977      C1978   1.407       .  A
C1977      H1982   1.083       .  S
C1978      C1979   1.409       .  A
C1978      H1983   1.082       .  S
C1979      C1980   1.405       .  A
C1980      H1984   1.083       .  S
C1985      C1986   1.413   1_554  A
C1985      C1990   1.423       .  A
C1985      H1991   1.083       .  S
C1986      C1987   1.409       .  A
C1987      C1988   1.401       .  A
C1987      H1992   1.083       .  S
C1988      C1989   1.406       .  A
C1988      H1993   1.083       .  S
C1989      C1990   1.414   1_556  A
C1990      H1994   1.083       .  S
C1995      C1996   1.402       .  A
C1995      C2000   1.392       .  A
C1995      H2001   1.084       .  S
C1996      C1997   1.394       .  A
C1997      C1998   1.391       .  A
C1997      H2002   1.083       .  S
C1998      C1999   1.410       .  A
C1998      H2003   1.083       .  S
C1999      C2000   1.400       .  A
C2000      H2004   1.083       .  S
C2005      C2006   1.405       .  A
C2005      C2010   1.394       .  A
C2005      H2011   1.084       .  S
C2006      C2007   1.400       .  A
C2007      C2008   1.390       .  A
C2007      H2012   1.083       .  S
C2008      C2009   1.401       .  A
C2008      H2013   1.084       .  S
C2009      C2010   1.397       .  A
C2010      H2014   1.083       .  S
C2015      C2016   1.405       .  A
C2015      C2020   1.389       .  A
C2015      H2021   1.083       .  S
C2016      C2017   1.408       .  A
C2017      C2018   1.403       .  A
C2017      H2022   1.083       .  S
C2018      C2019   1.404       .  A
C2018      H2023   1.083       .  S
C2019      C2020   1.401       .  A
C2020      H2024   1.084       .  S
C2025      C2026   1.412   1_556  A
C2025      C2030   1.419       .  A
C2025      H2031   1.083       .  S
C2026      C2027   1.411       .  A
C2027      C2028   1.414       .  A
C2027      H2032   1.083       .  S
C2028      C2029   1.412       .  A
C2028      H2033   1.083       .  S
C2029      C2030   1.413   1_554  A
C2030      H2034   1.083       .  S
C2035      C2036   1.401       .  A
C2035      C2040   1.401       .  A
C2035      H2041   1.084       .  S
C2036      C2037   1.401       .  A
C2037      C2038   1.389       .  A
C2037      H2042   1.083       .  S
C2038      C2039   1.404       .  A
C2038      H2043   1.084       .  S
C2039      C2040   1.408       .  A
C2040      H2044   1.082       .  S
C2045      C2046   1.398       .  A
C2045      C2050   1.383       .  A
C2045      H2051   1.084       .  S
C2046      C2047   1.403       .  A
C2047      C2048   1.402       .  A
C2047      H2052   1.083       .  S
C2048      C2049   1.407       .  A
C2048      H2053   1.083       .  S
C2049      C2050   1.405       .  A
C2050      H2054   1.083       .  S
C2055      C2056   1.404       .  A
C2055      C2060   1.404       .  A
C2055      H2061   1.083       .  S
C2056      C2057   1.402       .  A
C2057      C2058   1.386       .  A
C2057      H2062   1.084       .  S
C2058      C2059   1.401       .  A
C2058      H2063   1.084       .  S
C2059      C2060   1.407       .  A
C2060      H2064   1.083       .  S
C2065      C2066   1.403       .  A
C2065      C2070   1.403       .  A
C2065      H2071   1.083       .  S
C2066      C2067   1.402       .  A
C2067      C2068   1.388       .  A
C2067      H2072   1.084       .  S
C2068      C2069   1.401       .  A
C2068      H2073   1.084       .  S
C2069      C2070   1.406       .  A
C2070      H2074   1.083       .  S
C2075      C2076   1.414       .  A
C2075      C2080   1.425       .  A
C2075      H2081   1.082       .  S
C2076      C2077   1.409       .  A
C2077      C2078   1.400       .  A
C2077      H2082   1.083       .  S
C2078      C2079   1.407       .  A
C2078      H2083   1.083       .  S
C2079      C2080   1.415       .  A
C2080      H2084   1.083       .  S
C2085      C2086   1.411       .  A
C2085      C2090   1.412   1_554  A
C2085      H2091   1.083       .  S
C2086      C2087   1.411       .  A
C2087      C2088   1.415   1_554  A
C2087      H2092   1.083       .  S
C2088      C2089   1.414       .  A
C2088      H2093   1.083       .  S
C2089      C2090   1.411       .  A
C2090      H2094   1.083       .  S
C2095      C2096   1.398       .  A
C2095      C2100   1.388       .  A
C2095      H2101   1.084       .  S
C2096      C2097   1.405       .  A
C2097      C2098   1.393       .  A
C2097      H2102   1.083       .  S
C2098      C2099   1.401       .  A
C2098      H2103   1.083       .  S
C2099      C2100   1.406       .  A
C2100      H2104   1.083       .  S
C2105      C2106   1.408       .  A
C2105      C2110   1.387       .  A
C2105      H2111   1.083       .  S
C2106      C2107   1.400       .  A
C2107      C2108   1.390       .  A
C2107      H2112   1.083       .  S
C2108      C2109   1.405       .  A
C2108      H2113   1.084       .  S
C2109      C2110   1.395       .  A
C2110      H2114   1.084       .  S
C2115      C2116   1.404       .  A
C2115      C2120   1.403       .  A
C2115      H2121   1.083       .  S
C2116      C2117   1.402       .  A
C2117      C2118   1.387       .  A
C2117      H2122   1.084       .  S
C2118      C2119   1.400       .  A
C2118      H2123   1.084       .  S
C2119      C2120   1.405       .  A
C2120      H2124   1.083       .  S
C2125      C2126   1.408       .  A
C2125      C2130   1.408       .  A
C2125      H2131   1.083       .  S
C2126      C2127   1.409   1_554  A
C2127      C2128   1.415       .  A
C2127      H2132   1.083       .  S
C2128      C2129   1.413   1_556  A
C2128      H2133   1.083       .  S
C2129      C2130   1.409       .  A
C2130      H2134   1.083       .  S
C2135      C2136   1.406       .  A
C2135      C2140   1.387       .  A
C2135      H2141   1.083       .  S
C2136      C2137   1.402       .  A
C2137      C2138   1.391       .  A
C2137      H2142   1.083       .  S
C2138      C2139   1.403       .  A
C2138      H2143   1.084       .  S
C2139      C2140   1.398       .  A
C2140      H2144   1.084       .  S
C2145      C2146   1.404       .  A
C2145      C2150   1.391       .  A
C2145      H2151   1.083       .  S
C2146      C2147   1.398       .  A
C2147      C2148   1.388       .  A
C2147      H2152   1.084       .  S
C2148      C2149   1.407       .  A
C2148      H2153   1.083       .  S
C2149      C2150   1.401       .  A
C2150      H2154   1.083       .  S
C2155      C2156   1.401       .  A
C2155      C2160   1.401       .  A
C2155      H2161   1.083       .  S
C2156      C2157   1.398       .  A
C2157      C2158   1.385       .  A
C2157      H2162   1.084       .  S
C2158      C2159   1.404       .  A
C2158      H2163   1.083       .  S
C2159      C2160   1.408       .  A
C2160      H2164   1.083       .  S
C2165      C2166   1.406       .  A
C2165      C2170   1.398       .  A
C2165      H2171   1.084       .  S
C2166      C2167   1.414   1_556  A
C2167      C2168   1.423       .  A
C2167      H2172   1.082       .  S
C2168      C2169   1.414   1_554  A
C2168      H2173   1.083       .  S
C2169      C2170   1.408       .  A
C2170      H2174   1.083       .  S
C2175      C2176   1.414   1_556  A
C2175      C2180   1.416       .  A
C2175      H2181   1.083       .  S
C2176      C2177   1.412       .  A
C2177      C2178   1.416       .  A
C2177      H2182   1.083       .  S
C2178      C2179   1.413       .  A
C2178      H2183   1.083       .  S
C2179      C2180   1.412   1_554  A
C2180      H2184   1.083       .  S
C2185      C2186   1.402       .  A
C2185      C2190   1.387       .  A
C2185      H2191   1.084       .  S
C2186      C2187   1.405       .  A
C2187      C2188   1.401       .  A
C2187      H2192   1.083       .  S
C2188      C2189   1.406       .  A
C2188      H2193   1.083       .  S
C2189      C2190   1.403       .  A
C2190      H2194   1.083       .  S
C2195      C2196   1.407       .  A
C2195      C2200   1.403       .  A
C2195      H2201   1.083       .  S
C2196      C2197   1.404       .  A
C2197      C2198   1.390       .  A
C2197      H2202   1.083       .  S
C2198      C2199   1.404       .  A
C2198      H2203   1.083       .  S
C2199      C2200   1.407       .  A
C2200      H2204   1.083       .  S
C2205      C2206   1.414       .  A
C2205      C2210   1.417       .  A
C2205      H2211   1.083       .  S
C2206      C2207   1.410       .  A
C2207      C2208   1.406       .  A
C2207      H2212   1.083       .  S
C2208      C2209   1.407       .  A
C2208      H2213   1.083       .  S
C2209      C2210   1.410       .  A
C2210      H2214   1.083       .  S
C2215      C2216   1.402       .  A
C2215      C2220   1.387       .  A
C2215      H2221   1.084       .  S
C2216      C2217   1.407       .  A
C2217      C2218   1.406       .  A
C2217      H2222   1.083       .  S
C2218      C2219   1.406       .  A
C2218      H2223   1.083       .  S
C2219      C2220   1.401       .  A
C2220      H2224   1.084       .  S
C2225      C2226   1.405       .  A
C2225      C2230   1.389       .  A
C2225      H2231   1.083       .  S
C2226      C2227   1.407       .  A
C2227      C2228   1.401       .  A
C2227      H2232   1.083       .  S
C2228      C2229   1.402       .  A
C2228      H2233   1.083       .  S
C2229      C2230   1.401       .  A
C2230      H2234   1.084       .  S
C2235      C2236   1.415       .  A
C2235      C2240   1.426       .  A
C2235      H2241   1.083       .  S
C2236      C2237   1.408       .  A
C2237      C2238   1.399       .  A
C2237      H2242   1.083       .  S
C2238      C2239   1.409       .  A
C2238      H2243   1.083       .  S
C2239      C2240   1.415       .  A
C2240      H2244   1.082       .  S
C2245      C2246   1.412       .  A
C2245      C2250   1.412   1_545  A
C2245      H2251   1.083       .  S
C2246      C2247   1.412       .  A
C2247      C2248   1.419   1_545  A
C2247      H2252   1.083       .  S
C2248      C2249   1.412       .  A
C2248      H2253   1.083       .  S
C2249      C2250   1.409       .  A
C2250      H2254   1.083       .  S
C2255      C2256   1.407       .  A
C2255      C2260   1.386       .  A
C2255      H2261   1.084       .  S
C2256      C2257   1.399       .  A
C2257      C2258   1.391       .  A
C2257      H2262   1.083       .  S
C2258      C2259   1.406       .  A
C2258      H2263   1.083       .  S
C2259      C2260   1.396       .  A
C2260      H2264   1.084       .  S
C2265      C2266   1.402       .  A
C2265      C2270   1.392       .  A
C2265      H2271   1.083       .  S
C2266      C2267   1.405       .  A
C2267      C2268   1.389       .  A
C2267      H2272   1.083       .  S
C2268      C2269   1.397       .  A
C2268      H2273   1.084       .  S
C2269      C2270   1.401       .  A
C2270      H2274   1.084       .  S
C2275      C2276   1.404       .  A
C2275      C2280   1.390       .  A
C2275      H2281   1.083       .  S
C2276      C2277   1.405       .  A
C2277      C2278   1.405       .  A
C2277      H2282   1.083       .  S
C2278      C2279   1.408       .  A
C2278      H2283   1.083       .  S
C2279      C2280   1.404       .  A
C2280      H2284   1.084       .  S
C2285      C2286   1.400       .  A
C2285      C2290   1.386       .  A
C2285      H2291   1.084       .  S
C2286      C2287   1.404       .  A
C2287      C2288   1.403       .  A
C2287      H2292   1.083       .  S
C2288      C2289   1.405       .  A
C2288      H2293   1.083       .  S
C2289      C2290   1.402       .  A
C2290      H2294   1.084       .  S
C2295      C2296   1.409       .  A
C2295      C2300   1.408       .  A
C2295      H2301   1.083       .  S
C2296      C2297   1.409   1_565  A
C2297      C2298   1.416       .  A
C2297      H2302   1.082       .  S
C2298      C2299   1.413   1_545  A
C2298      H2303   1.083       .  S
C2299      C2300   1.409       .  A
C2300      H2304   1.083       .  S
C2305      C2306   1.405       .  A
C2305      C2310   1.392       .  A
C2305      H2311   1.083       .  S
C2306      C2307   1.398       .  A
C2307      C2308   1.387       .  A
C2307      H2312   1.084       .  S
C2308      C2309   1.406       .  A
C2308      H2313   1.083       .  S
C2309      C2310   1.401       .  A
C2310      H2314   1.083       .  S
C2315      C2316   1.399       .  A
C2315      C2320   1.388       .  A
C2315      H2321   1.084       .  S
C2316      C2317   1.408       .  A
C2317      C2318   1.393       .  A
C2317      H2322   1.083       .  S
C2318      C2319   1.396       .  A
C2318      H2323   1.083       .  S
C2319      C2320   1.402       .  A
C2320      H2324   1.084       .  S
C2325      C2326   1.403       .  A
C2325      C2330   1.385       .  A
C2325      H2331   1.084       .  S
C2326      C2327   1.406       .  A
C2327      C2328   1.405       .  A
C2327      H2332   1.083       .  S
C2328      C2329   1.406       .  A
C2328      H2333   1.083       .  S
C2329      C2330   1.401       .  A
C2330      H2334   1.084       .  S
C2335      C2336   1.401       .  A
C2335      C2340   1.388       .  A
C2335      H2341   1.084       .  S
C2336      C2337   1.404       .  A
C2337      C2338   1.402       .  A
C2337      H2342   1.083       .  S
C2338      C2339   1.404       .  A
C2338      H2343   1.083       .  S
C2339      C2340   1.400       .  A
C2340      H2344   1.084       .  S
C2345      C2346   1.408       .  A
C2345      C2350   1.401       .  A
C2345      H2351   1.083       .  S
C2346      C2347   1.413   1_545  A
C2347      C2348   1.424       .  A
C2347      H2352   1.082       .  S
C2348      C2349   1.414   1_565  A
C2348      H2353   1.082       .  S
C2349      C2350   1.408       .  A
C2350      H2354   1.083       .  S
C2355      C2356   1.413       .  A
C2355      C2360   1.417       .  A
C2355      H2361   1.082       .  S
C2356      C2357   1.413   1_565  A
C2357      C2358   1.415       .  A
C2357      H2362   1.083       .  S
C2358      C2359   1.412   1_545  A
C2358      H2363   1.082       .  S
C2359      C2360   1.413       .  A
C2360      H2364   1.083       .  S
C2365      C2366   1.402       .  A
C2365      C2370   1.399       .  A
C2365      H2371   1.083       .  S
C2366      C2367   1.398       .  A
C2367      C2368   1.388       .  A
C2367      H2372   1.084       .  S
C2368      C2369   1.404       .  A
C2368      H2373   1.083       .  S
C2369      C2370   1.406       .  A
C2370      H2374   1.083       .  S
C2375      C2376   1.401       .  A
C2375      C2380   1.389       .  A
C2375      H2381   1.084       .  S
C2376      C2377   1.405       .  A
C2377      C2378   1.407       .  A
C2377      H2382   1.083       .  S
C2378      C2379   1.407       .  A
C2378      H2383   1.083       .  S
C2379      C2380   1.401       .  A
C2380      H2384   1.083       .  S
C2385      C2386   1.407       .  A
C2385      C2390   1.405       .  A
C2385      H2391   1.083       .  S
C2386      C2387   1.407       .  A
C2387      C2388   1.413       .  A
C2387      H2392   1.083       .  S
C2388      C2389   1.412       .  A
C2388      H2393   1.083       .  S
C2389      C2390   1.408       .  A
C2390      H2394   1.083       .  S
C2395      C2396   1.401       .  A
C2395      C2400   1.386       .  A
C2395      H2401   1.084       .  S
C2396      C2397   1.405       .  A
C2397      C2398   1.402       .  A
C2397      H2402   1.083       .  S
C2398      C2399   1.403       .  A
C2398      H2403   1.083       .  S
C2399      C2400   1.401       .  A
C2400      H2404   1.084       .  S
C2405      C2406   1.399       .  A
C2405      C2410   1.389       .  A
C2405      H2411   1.084       .  S
C2406      C2407   1.403       .  A
C2407      C2408   1.401       .  A
C2407      H2412   1.083       .  S
C2408      C2409   1.407       .  A
C2408      H2413   1.083       .  S
C2409      C2410   1.405       .  A
C2410      H2414   1.083       .  S
C2415      C2416   1.408       .  A
C2415      C2420   1.413       .  A
C2415      H2421   1.083       .  S
C2416      C2417   1.406       .  A
C2417      C2418   1.405       .  A
C2417      H2422   1.083       .  S
C2418      C2419   1.408       .  A
C2418      H2423   1.083       .  S
C2419      C2420   1.412       .  A
C2420      H2424   1.083       .  S
C2425      C2426   1.411       .  A
C2425      C2430   1.415   1_455  A
C2425      H2431   1.083       .  S
C2426      C2427   1.413       .  A
C2427      C2428   1.414   1_455  A
C2427      H2432   1.082       .  S
C2428      C2429   1.410       .  A
C2428      H2433   1.083       .  S
C2429      C2430   1.413       .  A
C2430      H2434   1.082       .  S
C2435      C2436   1.399       .  A
C2435      C2440   1.389       .  A
C2435      H2441   1.083       .  S
C2436      C2437   1.409       .  A
C2437      C2438   1.387       .  A
C2437      H2442   1.083       .  S
C2438      C2439   1.397       .  A
C2438      H2443   1.084       .  S
C2439      C2440   1.406       .  A
C2440      H2444   1.083       .  S
C2445      C2446   1.405       .  A
C2445      C2450   1.391       .  A
C2445      H2451   1.083       .  S
C2446      C2447   1.400       .  A
C2447      C2448   1.387       .  A
C2447      H2452   1.084       .  S
C2448      C2449   1.406       .  A
C2448      H2453   1.083       .  S
C2449      C2450   1.401       .  A
C2450      H2454   1.083       .  S
C2455      C2456   1.405       .  A
C2455      C2460   1.405       .  A
C2455      H2461   1.083       .  S
C2456      C2457   1.401       .  A
C2457      C2458   1.389       .  A
C2457      H2462   1.084       .  S
C2458      C2459   1.401       .  A
C2458      H2463   1.084       .  S
C2459      C2460   1.406       .  A
C2460      H2464   1.083       .  S
C2465      C2466   1.404       .  A
C2465      C2470   1.401       .  A
C2465      H2471   1.083       .  S
C2466      C2467   1.399       .  A
C2467      C2468   1.384       .  A
C2467      H2472   1.084       .  S
C2468      C2469   1.405       .  A
C2468      H2473   1.083       .  S
C2469      C2470   1.406       .  A
C2470      H2474   1.083       .  S
C2475      C2476   1.410   1_455  A
C2475      C2480   1.419       .  A
C2475      H2481   1.083       .  S
C2476      C2477   1.409       .  A
C2477      C2478   1.409       .  A
C2477      H2482   1.083       .  S
C2478      C2479   1.410       .  A
C2478      H2483   1.083       .  S
C2479      C2480   1.414   1_655  A
C2480      H2484   1.082       .  S
C2485      C2486   1.403       .  A
C2485      C2490   1.394       .  A
C2485      H2491   1.085       .  S
C2486      C2487   1.394       .  A
C2487      C2488   1.389       .  A
C2487      H2492   1.083       .  S
C2488      C2489   1.409       .  A
C2488      H2493   1.084       .  S
C2489      C2490   1.400       .  A
C2490      H2494   1.082       .  S
C2495      C2496   1.402       .  A
C2495      C2500   1.393       .  A
C2495      H2501   1.084       .  S
C2496      C2497   1.397       .  A
C2497      C2498   1.389       .  A
C2497      H2502   1.083       .  S
C2498      C2499   1.406       .  A
C2498      H2503   1.083       .  S
C2499      C2500   1.402       .  A
C2500      H2504   1.083       .  S
C2505      C2506   1.406       .  A
C2505      C2510   1.392       .  A
C2505      H2511   1.083       .  S
C2506      C2507   1.408       .  A
C2507      C2508   1.403       .  A
C2507      H2512   1.083       .  S
C2508      C2509   1.403       .  A
C2508      H2513   1.083       .  S
C2509      C2510   1.400       .  A
C2510      H2514   1.084       .  S
C2515      C2516   1.404       .  A
C2515      C2520   1.385       .  A
C2515      H2521   1.083       .  S
C2516      C2517   1.407       .  A
C2517      C2518   1.405       .  A
C2517      H2522   1.083       .  S
C2518      C2519   1.407       .  A
C2518      H2523   1.083       .  S
C2519      C2520   1.403       .  A
C2520      H2524   1.083       .  S
C2525      C2526   1.414   1_655  A
C2525      C2530   1.417       .  A
C2525      H2531   1.083       .  S
C2526      C2527   1.411       .  A
C2527      C2528   1.411       .  A
C2527      H2532   1.083       .  S
C2528      C2529   1.408       .  A
C2528      H2533   1.083       .  S
C2529      C2530   1.409   1_455  A
C2530      H2534   1.083       .  S
C2535      C2536   1.414   1_655  A
C2535      C2540   1.422       .  A
C2535      H2541   1.082       .  S
C2536      C2537   1.412       .  A
C2537      C2538   1.417       .  A
C2537      H2542   1.083       .  S
C2538      C2539   1.413   1_455  A
C2538      H2543   1.083       .  S
C2539      C2540   1.414       .  A
C2540      H2544   1.083       .  S
