geometry optimzed in LAMMPS
_audit_creation_date              2020-12-01 
_audit_creation_method            'lammps2cif' 
_symmetry_space_group_name_H-M    'P1' 
_symmetry_Int_Tables_number       1 
_symmetry_cell_setting            triclinic 
loop_ 
_symmetry_equiv_pos_as_xyz 
  x,y,z 
_cell_length_a                    48.66113846 
_cell_length_b                    48.872987602643505 
_cell_length_c                    68.8120689643409 
_cell_angle_alpha                 89.78193003278048 
_cell_angle_beta                  90.52096948922586 
_cell_angle_gamma                 86.98462011185143 
loop_ 
_atom_site_label 
_atom_site_type_symbol 
_atom_site_fract_x 
_atom_site_fract_y 
_atom_site_fract_z 
_atom_site_charge 
C1          C  0.24201339  0.02365809  0.23894079     0.86600
C2          C  0.24420643  0.99666679  0.22750728    -0.53700
C3          C  0.24454236  0.47405346  0.23886529     0.09500
C4          C  0.24195480  0.47970216  0.26070286     0.20500
C5          C  0.21563279  0.02110486  0.25110316    -0.54400
C6          C  0.21553611  0.49816467  0.26214989     0.09600
C7          C  0.26535762  0.02118726  0.25420102    -0.53900
C8          C  0.26557773  0.49841536  0.26558736     0.10200
H9          H  0.24504446  0.49625928  0.21185400     0.14700
H10         H  0.24185599  0.46081771  0.26973379     0.00400
H11         H  0.19821909  0.03572461  0.25140879     0.15000
H12         H  0.28079847  0.03628746  0.25584121     0.14800
C13         C  0.47261051  0.26831303  0.99378916     0.02400
C14         C  0.47559711  0.27027368  0.01414056     0.02300
C15         C  0.00195383  0.27130330  0.02242519    -0.18200
C16         C  0.02546775  0.27041772  0.01072397     0.02400
C17         C  0.02248151  0.26853711  0.99033842     0.02300
C18         C  0.99606215  0.26765837  0.98207350    -0.18200
H19         H  0.99375048  0.26625282  0.96642118     0.04400
H20         H  0.00420922  0.27240778  0.03809519     0.04400
C21         C  0.26703703  0.04653941  0.76112199     0.86600
C22         C  0.29246969  0.04096472  0.74825143    -0.53700
C23         C  0.29308104  0.51688174  0.73845401     0.09500
C24         C  0.26727356  0.50039071  0.74191320     0.20500
C25         C  0.24285304  0.04457935  0.74673741    -0.54400
C26         C  0.24282447  0.52068638  0.73666793     0.09600
C27         C  0.26624900  0.52121246  0.77395226    -0.53900
C28         C  0.26618519  0.49696617  0.76420929     0.10200
H29         H  0.30902870  0.05468306  0.74649715     0.14700
H30         H  0.26703143  0.48072198  0.73394526     0.00400
H31         H  0.22714177  0.06095755  0.74460123     0.15000
H32         H  0.26580057  0.52232871  0.78972019     0.14800
C33         C  0.00361000  0.20515610  0.74148421     0.86600
C34         C  0.00325728  0.22915943  0.72707487    -0.53700
C35         C  0.00040482  0.25430130  0.73547937     0.09500
C36         C  0.99896227  0.25351718  0.75787773     0.20500
C37         C  0.02736370  0.21113479  0.75566613    -0.54400
C38         C  0.02515576  0.23637659  0.76419219     0.09600
C39         C  0.47767361  0.20994725  0.75366534    -0.53900
C40         C  0.47505287  0.23492561  0.76240198     0.10200
H41         H  0.00521821  0.22651986  0.71146943     0.14700
H42         H  0.49697683  0.27414872  0.76457416     0.00400
H43         H  0.04492249  0.19738016  0.75890949     0.15000
H44         H  0.46223076  0.19479728  0.75492793     0.14800
C45         C  0.24141482  0.48595157  0.99283123     0.02400
C46         C  0.24037928  0.48657521  0.01331961     0.02300
C47         C  0.24160259  0.01201449  0.02285799    -0.18200
C48         C  0.24385819  0.03665499  0.01250685     0.02400
C49         C  0.24349569  0.03622847  0.99187369     0.02300
C50         C  0.24315752  0.01067667  0.98245187    -0.18200
H51         H  0.24411370  0.00991918  0.96673218     0.04400
H52         H  0.24111462  0.01242449  0.03860719     0.04400
O53         O  0.23311170  0.30675478  0.90120619    -0.80000
O54         O  0.20197683  0.27946734  0.85328710    -0.80100
O55         O  0.28465069  0.31776747  0.85809947    -0.80100
O56         O  0.19999544  0.25782741  0.89637695    -0.80000
O57         O  0.24056450  0.31727875  0.85184979    -0.80100
O58         O  0.22004574  0.26431415  0.92478370    -0.80100
O59         O  0.20126099  0.23622164  0.85962412    -0.80000
O60         O  0.27712035  0.31500118  0.89764744    -0.80100
C61         C  0.25297927  0.32224106  0.90362737     1.09600
C62         C  0.18947602  0.25760599  0.85234544     1.09500
C63         C  0.26285834  0.32912888  0.85069599     1.09700
C64         C  0.19822196  0.26226378  0.91486805     1.09500
O65         O  0.25114190  0.22469296  0.90653376    -0.80000
O66         O  0.27957188  0.27808846  0.83418203    -0.80100
O67         O  0.30203646  0.25823355  0.89693384    -0.80100
O68         O  0.25691593  0.21567709  0.86372577    -0.80000
O69         O  0.24241283  0.23860594  0.83754599    -0.80100
O70         O  0.27405738  0.27227735  0.91917285    -0.80100
O71         O  0.21789195  0.20481794  0.89088710    -0.80000
O72         O  0.30542317  0.26131150  0.85810598    -0.80100
Co73       Co  0.24123171  0.26679051  0.90193200     1.51500
Co74       Co  0.24129566  0.27810381  0.84606727     1.51700
Co75       Co  0.29032864  0.28666179  0.87767721     1.51600
Co76       Co  0.23109620  0.23752000  0.88014057     1.51500
O77         O  0.25330262  0.27000761  0.87403494    -1.42000
C78         C  0.23590572  0.20394640  0.90427678     1.09600
C79         C  0.30260457  0.26785844  0.84048656     1.09700
C80         C  0.29784870  0.26331889  0.91456387     1.09600
C81         C  0.25331196  0.21693456  0.84547580     1.09600
O82         O  0.29832742  0.28853609  0.14227396    -0.80000
O83         O  0.22183980  0.20838558  0.10714897    -0.80100
O84         O  0.26439087  0.20442044  0.14951148    -0.80100
O85         O  0.27527048  0.26012049  0.07798676    -0.80000
O86         O  0.21953371  0.20313870  0.14645037    -0.80100
O87         O  0.29636099  0.27074874  0.10516342    -0.80100
O88         O  0.26538200  0.21687014  0.10211799    -0.80000
O89         O  0.30047239  0.24447138  0.14582644    -0.80100
C90         C  0.31218028  0.26672038  0.14683759     1.09600
C91         C  0.24553823  0.20126241  0.10031395     1.09500
C92         C  0.24267325  0.19166986  0.15133137     1.09700
C93         C  0.29722756  0.26584684  0.08669659     1.09500
O94         O  0.27495027  0.32166142  0.11345351    -0.80000
O95         O  0.19708080  0.25883360  0.14968351    -0.80100
O96         O  0.26121519  0.28238433  0.16636003    -0.80100
O97         O  0.22154875  0.25097981  0.08635280    -0.80000
O98         O  0.19596157  0.26412405  0.11039472    -0.80100
O99         O  0.24064274  0.30550966  0.14225905    -0.80100
O100        O  0.24427758  0.29817540  0.09772044    -0.80000
O101        O  0.22732254  0.24113559  0.17073126    -0.80100
Co102      Co  0.26582175  0.28723236  0.12372014     1.51500
Co103      Co  0.21033014  0.23522265  0.12836869     1.51700
Co104      Co  0.26312165  0.24337641  0.15638988     1.51600
Co105      Co  0.25628612  0.25654203  0.10173396     1.51500
O106        O  0.24696359  0.25280097  0.12989623    -1.42000
C107        C  0.25671002  0.32069139  0.10023866     1.09600
C108        C  0.20354819  0.25191919  0.16688337     1.09700
C109        C  0.24675418  0.30323137  0.16014448     1.09600
C110        C  0.19816678  0.25919907  0.09257149     1.09600
O111        O  0.06128780  0.01709025  0.64528057    -0.80000
O112        O  0.50211788  0.43403075  0.60441958    -0.80100
O113        O  0.02674354  0.43326144  0.64675076    -0.80100
O114        O  0.05214033  0.46992620  0.60108311    -0.80000
O115        O  0.48282256  0.43188406  0.64149622    -0.80100
O116        O  0.05640979  0.01400776  0.60609163    -0.80100
O117        O  0.00979077  0.45587464  0.57694169    -0.80000
O118        O  0.06468857  0.47281516  0.65041919    -0.80100
C119        C  0.07506954  0.99567102  0.65110080     1.09600
C120        C  0.50674395  0.43355664  0.58592427     1.09500
C121        C  0.50491373  0.42083063  0.64844294     1.09700
C122        C  0.06569892  0.99108742  0.59925757     1.09500
O123        O  0.99836957  0.03431928  0.60893638    -0.80000
O124        O  0.46114536  0.48719622  0.64051246    -0.80100
O125        O  0.52403782  0.00766725  0.66984345    -0.80100
O126        O  0.46938449  0.48363849  0.59625907    -0.80000
O127        O  0.44905186  0.45071603  0.61147927    -0.80100
O128        O  0.00336144  0.03417212  0.64774810    -0.80100
O129        O  0.51424980  0.01061281  0.58492207    -0.80000
O130        O  0.48565632  0.47037573  0.66552494    -0.80100
Co131      Co  0.02849667  0.02303251  0.62701172     1.51500
Co132      Co  0.48226467  0.46331414  0.62239303     1.51700
Co133      Co  0.02506385  0.47121804  0.65629183     1.51600
Co134      Co  0.01182985  0.47551851  0.60057827     1.51500
O135        O  0.01488984  0.48512534  0.62898720    -1.42000
C136        C  0.00386209  0.03314703  0.59120002     1.09600
C137        C  0.46362188  0.48213836  0.65856464     1.09700
C138        C  0.01152935  0.03015213  0.66492863     1.09600
C139        C  0.44853306  0.46847581  0.59799213     1.09600
O140        O  0.02353006  0.49109857  0.33575216    -0.80000
O141        O  0.99701800  0.45418259  0.41653524    -0.80100
O142        O  0.05894663  0.01572238  0.38982993    -0.80100
O143        O  0.50146316  0.42680254  0.35360098    -0.80000
O144        O  0.04116283  0.48064164  0.40411923    -0.80100
O145        O  0.98215585  0.45492867  0.33213548    -0.80100
O146        O  0.50950322  0.42782637  0.39258751    -0.80000
O147        O  0.04888730  0.97781023  0.36137736    -0.80100
C148        C  0.04650972  0.48206364  0.34320090     1.09600
C149        C  0.50646660  0.43107328  0.41060953     1.09500
C150        C  0.06089122  0.49717497  0.40263388     1.09700
C151        C  0.49284561  0.43138490  0.33653046     1.09500
O152        O  0.44549079  0.49231888  0.35332131    -0.80000
O153        O  0.00126472  0.00933759  0.42382419    -0.80100
O154        O  0.02672893  0.03218751  0.35860271    -0.80100
O155        O  0.45307391  0.45067184  0.39697258    -0.80000
O156        O  0.45835092  0.49493658  0.40070787    -0.80100
O157        O  0.98318365  0.02966667  0.35498154    -0.80100
O158        O  0.44477979  0.44802205  0.35781823    -0.80000
O159        O  0.00543609  0.03090354  0.39584007    -0.80100
Co160      Co  0.98410491  0.49166592  0.34570921     1.51500
Co161      Co  0.99877768  0.48876912  0.40054182     1.51700
Co162      Co  0.02656243  0.00168028  0.37864763     1.51600
Co163      Co  0.47878177  0.44034337  0.37517661     1.51500
O164        O  0.99511426  0.47768164  0.37249500    -1.42000
C165        C  0.43257207  0.47070191  0.35268649     1.09600
C166        C  0.00244478  0.03165110  0.41449091     1.09700
C167        C  0.00428326  0.04241672  0.35180126     1.09600
C168        C  0.44448025  0.47401968  0.40323826     1.09600
C169        C  0.50138410  0.25692495  0.51153746     0.02400
C170        C  0.50213676  0.25834649  0.49104206     0.02300
C171        C  0.50145495  0.23408227  0.48023806    -0.18200
C172        C  0.50013123  0.20843743  0.48945758     0.02400
C173        C  0.49985453  0.20695360  0.51004458     0.02300
C174        C  0.50011183  0.23133807  0.52080346    -0.18200
H175        H  0.49986969  0.23036654  0.53654600     0.04400
H176        H  0.50194507  0.23516134  0.46450367     0.04400
C177        C  0.28014899  0.48987636  0.51029174     0.02400
C178        C  0.27891511  0.48835923  0.48977449     0.02300
C179        C  0.25318245  0.48929316  0.48031685    -0.18200
C180        C  0.22842544  0.49318472  0.49051305     0.02400
C181        C  0.22973225  0.49544681  0.51104573     0.02300
C182        C  0.25553014  0.49396935  0.52052544    -0.18200
H183        H  0.25638448  0.49508317  0.53624806     0.04400
H184        H  0.25246315  0.48699500  0.46467028     0.04400
C185        C  0.99981663  0.20616642  0.25965356     0.86600
C186        C  0.47664575  0.20966470  0.24433867    -0.53700
C187        C  0.47815305  0.23228984  0.23258030     0.09500
C188        C  0.50312227  0.24945063  0.23728011     0.20500
C189        C  0.02665232  0.20685246  0.24807897    -0.54400
C190        C  0.02854448  0.22924128  0.23660497     0.09600
C191        C  0.99908057  0.23371982  0.27060075    -0.53900
C192        C  0.50026528  0.25654440  0.25897594     0.10200
H193        H  0.46003470  0.19574240  0.24325885     0.14700
H194        H  0.50420755  0.26764860  0.22778406     0.00400
H195        H  0.04444685  0.19288162  0.25016745     0.15000
H196        H  0.99789711  0.23504852  0.28631511     0.14800
C197        C  0.49361189  0.40815243  0.32244846    -0.11900
C198        C  0.47771948  0.40818475  0.30504920     0.03600
C199        C  0.47844800  0.38483949  0.29316232    -0.12400
C200        C  0.49429188  0.36113083  0.29839867     0.18500
C201        C  0.00994400  0.36093343  0.31564284    -0.09500
C202        C  0.00945113  0.38410863  0.32744650    -0.02400
H203        H  0.46594563  0.38487920  0.28005001     0.05000
C204        C  0.49332787  0.33605981  0.28647998     0.20400
H205        H  0.02156207  0.38315478  0.34074319     0.10200
C206        C  0.01182494  0.33183808  0.27119601    -0.15800
C207        C  0.01385498  0.30679272  0.26127277     0.03100
C208        C  0.49745465  0.28499023  0.26705623    -0.11100
C209        C  0.47795901  0.29010520  0.28177757    -0.01100
C210        C  0.47575176  0.31527505  0.29135927    -0.06300
H211        H  0.02529867  0.34791970  0.26731566     0.06200
H212        H  0.46444414  0.27426964  0.28605731     0.09500
Br213      Br  0.03180243  0.32907547  0.32390598    -0.06000
Br214      Br  0.45279533  0.43810083  0.29727624    -0.02900
Br215      Br  0.04046853  0.30448565  0.24090093    -0.00100
Br216      Br  0.44895236  0.32020409  0.31147286    -0.04500
C217        C  0.00256327  0.06695472  0.33890804    -0.11900
C218        C  0.98328163  0.06915867  0.32330193     0.03600
C219        C  0.98194188  0.09235174  0.31130836    -0.12400
C220        C  0.99972404  0.11353224  0.31417202     0.18500
C221        C  0.01915047  0.11142396  0.32950601    -0.09500
C222        C  0.02047621  0.08826075  0.34172391    -0.02400
H223        H  0.96744819  0.09350398  0.29923360     0.05000
C224        C  0.99900612  0.13648784  0.29999010     0.20400
H225        H  0.03548442  0.08693523  0.35346762     0.10200
C226        C  0.47891155  0.15801531  0.30136370    -0.15800
C227        C  0.47771967  0.17975338  0.28787441     0.03100
C228        C  0.99766971  0.18082129  0.27296719    -0.11100
C229        C  0.01588691  0.15749237  0.27075247    -0.01100
C230        C  0.01684826  0.13585569  0.28410633    -0.06300
H231        H  0.46395450  0.15780133  0.31291626     0.06200
H232        H  0.02926630  0.15519957  0.25842937     0.09500
Br233      Br  0.04432401  0.13964564  0.33405807    -0.06000
Br234      Br  0.95972409  0.04034845  0.31618837    -0.02900
Br235      Br  0.44756272  0.20649154  0.29030093    -0.00100
Br236      Br  0.04252518  0.10534298  0.27974737    -0.04500
C237        C  0.00086481  0.05810665  0.42485799    -0.11900
C238        C  0.48628028  0.08157907  0.41730515     0.03600
C239        C  0.48648180  0.10642367  0.42740314    -0.12400
C240        C  0.00166556  0.10853077  0.44471245     0.18500
C241        C  0.01650632  0.08520697  0.45210867    -0.09500
C242        C  0.01570109  0.06021576  0.44234215    -0.02400
H243        H  0.47489198  0.12424230  0.42167338     0.05000
C244        C  0.00107499  0.13493202  0.45520706     0.20400
H245        H  0.02738695  0.04250318  0.44815824     0.10200
C246        C  0.47704674  0.14383009  0.46494231    -0.15800
C247        C  0.47609765  0.16809532  0.47571790     0.03100
C248        C  0.99968192  0.18351508  0.47724309    -0.11100
C249        C  0.02321663  0.17535102  0.46665738    -0.01100
C250        C  0.02404340  0.15129818  0.45565985    -0.06300
H251        H  0.45897576  0.13183294  0.46414834     0.06200
H252        H  0.04113274  0.18759093  0.46715002     0.09500
Br253      Br  0.03842262  0.08655582  0.47535834    -0.06000
Br254      Br  0.46488701  0.08070966  0.39376148    -0.02900
Br255      Br  0.44168238  0.18027674  0.48693551    -0.00100
Br256      Br  0.05667601  0.14188727  0.44117768    -0.04500
C257        C  0.50397986  0.28494493  0.48064668    -0.11900
C258        C  0.48024497  0.30048609  0.47450691     0.03600
C259        C  0.48276347  0.32522449  0.46444235    -0.12400
C260        C  0.50875894  0.33487019  0.46031477     0.18500
C261        C  0.03246979  0.31955284  0.46669334    -0.09500
C262        C  0.02996522  0.29474271  0.47667823    -0.02400
H263        H  0.46438654  0.33668561  0.45940961     0.05000
C264        C  0.51063645  0.35947296  0.44776819     0.20400
H265        H  0.04835924  0.28293528  0.48124423     0.10200
C266        C  0.51378670  0.38539344  0.45599590    -0.15800
C267        C  0.51393621  0.40902892  0.44424304     0.03100
C268        C  0.51052246  0.40690831  0.42385428    -0.11100
C269        C  0.00867264  0.38063259  0.41576567    -0.01100
C270        C  0.00866291  0.35720316  0.42746523    -0.06300
H271        H  0.51588746  0.38725772  0.47161405     0.06200
H272        H  0.00622215  0.37823650  0.40021137     0.09500
Br273      Br  0.06861279  0.33138732  0.46149556    -0.06000
Br274      Br  0.44404076  0.28827032  0.47891519    -0.02900
Br275      Br  0.51972455  0.44325737  0.45682660    -0.00100
Br276      Br  0.00537272  0.32241197  0.41505550    -0.04500
C277        C  0.20204978  0.49391713  0.47910927    -0.11900
C278        C  0.19764720  0.01167018  0.46278242     0.03600
C279        C  0.17385291  0.01034842  0.45138976    -0.12400
C280        C  0.15336054  0.49275477  0.45616944     0.18500
C281        C  0.15708399  0.47543503  0.47252208    -0.09500
C282        C  0.18140939  0.47584733  0.48365600    -0.02400
H283        H  0.17117718  0.02372795  0.43884914     0.05000
C284        C  0.12830751  0.49302689  0.44359856     0.20400
H285        H  0.18424573  0.46184164  0.49581530     0.10200
C286        C  0.12248555  0.46975662  0.43262720    -0.15800
C287        C  0.10050656  0.47052851  0.41922008     0.03100
C288        C  0.08453115  0.49508305  0.41623262    -0.11100
C289        C  0.09016473  0.01803217  0.42715699    -0.01100
C290        C  0.11151373  0.01704547  0.44092078    -0.06300
H291        H  0.13537399  0.45112885  0.43423421     0.06200
H292        H  0.07765622  0.03687035  0.42528072     0.09500
Br293      Br  0.12914134  0.45173584  0.48065739    -0.06000
Br294      Br  0.22274875  0.03908005  0.45578058    -0.02900
Br295      Br  0.09396006  0.43813459  0.40459031    -0.00100
Br296      Br  0.11641806  0.04915878  0.45630143    -0.04500
C297        C  0.41942785  0.47600586  0.41513259    -0.11900
C298        C  0.41436841  0.45588031  0.42928006     0.03600
C299        C  0.39086548  0.45855155  0.44066374    -0.12400
C300        C  0.37176441  0.48070422  0.43811097     0.18500
C301        C  0.37638418  0.00153687  0.42374381    -0.09500
C302        C  0.40027754  0.99908850  0.41254421    -0.02400
H303        H  0.38758226  0.44333097  0.45178701     0.05000
C304        C  0.34763038  0.48274263  0.45100596     0.20400
H305        H  0.40399667  0.01463073  0.40174511     0.10200
C306        C  0.34396065  0.00588910  0.46333945    -0.15800
C307        C  0.32194931  0.00800160  0.47623862     0.03100
C308        C  0.30372289  0.48609613  0.47746493    -0.11100
C309        C  0.30697525  0.46377999  0.46474430    -0.01100
C310        C  0.32855330  0.46204468  0.45150485    -0.06300
H311        H  0.35837677  0.02203571  0.46291551     0.06200
H312        H  0.29227859  0.44786806  0.46487453     0.09500
Br313      Br  0.35084082  0.03206608  0.41875000    -0.06000
Br314      Br  0.43937005  0.42508466  0.43487694    -0.02900
Br315      Br  0.31642513  0.04160069  0.49030491    -0.00100
Br316      Br  0.33012480  0.43183646  0.43370917    -0.04500
C317        C  0.09134582  0.49046752  0.58763269    -0.11900
C318        C  0.09745433  0.47013490  0.57345029     0.03600
C319        C  0.11984958  0.47268884  0.56115750    -0.12400
C320        C  0.13701237  0.49469217  0.56282866     0.18500
C321        C  0.13123057  0.01483347  0.57703955    -0.09500
C322        C  0.10859821  0.01253749  0.58921545    -0.02400
H323        H  0.12399574  0.45727161  0.55013763     0.05000
C324        C  0.16097215  0.49562134  0.54980562     0.20400
H325        H  0.10450171  0.02828255  0.59999895     0.10200
C326        C  0.16273106  0.01760541  0.53642884    -0.15800
C327        C  0.18491296  0.01825847  0.52358897     0.03100
C328        C  0.20510305  0.49603414  0.52356522    -0.11100
C329        C  0.20303603  0.47445343  0.53688243    -0.01100
C330        C  0.18153823  0.47427843  0.55007260    -0.06300
H331        H  0.14705202  0.03416939  0.53616036     0.06200
H332        H  0.21862011  0.45778699  0.53723918     0.09500
Br333      Br  0.15410000  0.04519570  0.58089108    -0.06000
Br334      Br  0.07615159  0.43871003  0.56910225    -0.02900
Br335      Br  0.18767973  0.05008322  0.50747626    -0.00100
Br336      Br  0.18212215  0.44504161  0.56881975    -0.04500
C337        C  0.30628985  0.48640888  0.52177363    -0.11900
C338        C  0.32197421  0.46125897  0.52250712     0.03600
C339        C  0.34532790  0.45834832  0.53464022    -0.12400
C340        C  0.35299872  0.47995118  0.54657240     0.18500
C341        C  0.33702151  0.50477445  0.54620903    -0.09500
C342        C  0.31399355  0.00819699  0.53381157    -0.02400
H343        H  0.35714290  0.43893979  0.53515337     0.05000
C344        C  0.37737860  0.47631189  0.55963041     0.20400
H345        H  0.30180272  0.02738874  0.53393813     0.10200
C346        C  0.40243123  0.98591119  0.55353972    -0.15800
C347        C  0.42568954  0.98388901  0.56573231     0.03100
C348        C  0.42414901  0.47212003  0.58468959    -0.11100
C349        C  0.39878393  0.46222794  0.59045696    -0.01100
C350        C  0.37558450  0.46434177  0.57816786    -0.06300
H351        H  0.40397388  0.99508319  0.53925405     0.06200
H352        H  0.39686531  0.45293875  0.60466206     0.09500
Br353      Br  0.34583890  0.03487394  0.56261977    -0.06000
Br354      Br  0.31075401  0.42942595  0.50896084    -0.02900
Br355      Br  0.45898241  0.99661142  0.55501917    -0.00100
Br356      Br  0.34161538  0.45119248  0.58739091    -0.04500
C357        C  0.00034577  0.05817220  0.57863545    -0.11900
C358        C  0.49605837  0.08493447  0.58647795     0.03600
C359        C  0.49512272  0.10791070  0.57422105    -0.12400
C360        C  0.99744140  0.10524967  0.55404750     0.18500
C361        C  0.00070290  0.07876277  0.54611503    -0.09500
C362        C  0.00264123  0.05565428  0.55834080    -0.02400
H363        H  0.49266878  0.12817057  0.58052402     0.05000
C364        C  0.99726213  0.13049830  0.54180256     0.20400
H365        H  0.00581022  0.03559593  0.55186806     0.10200
C366        C  0.02132512  0.13710682  0.53208133    -0.15800
C367        C  0.02258148  0.16181524  0.52172709     0.03100
C368        C  0.49937639  0.18034340  0.52071878    -0.11100
C369        C  0.47548952  0.17391635  0.53069071    -0.01100
C370        C  0.47420879  0.14922405  0.54101244    -0.06300
H371        H  0.03946666  0.12334267  0.53303273     0.06200
H372        H  0.45767114  0.18814460  0.53034884     0.09500
Br373      Br  0.00110038  0.07303360  0.51864183    -0.06000
Br374      Br  0.49196827  0.09262029  0.61370525    -0.02900
Br375      Br  0.05714659  0.17033601  0.51066783    -0.00100
Br376      Br  0.44028040  0.14172982  0.55346328    -0.04500
C377        C  0.50286556  0.28194924  0.52347523    -0.11900
C378        C  0.47946054  0.29378960  0.53271444     0.03600
C379        C  0.48129493  0.31839473  0.54286180    -0.12400
C380        C  0.50633365  0.33127317  0.54417309     0.18500
C381        C  0.02993027  0.31896796  0.53548473    -0.09500
C382        C  0.02804477  0.29449524  0.52520470    -0.02400
H383        H  0.46311657  0.32760824  0.54969215     0.05000
C384        C  0.50731834  0.35762158  0.55454744     0.20400
H385        H  0.04623878  0.28531321  0.51839015     0.10200
C386        C  0.51905854  0.35817788  0.57320880    -0.15800
C387        C  0.51952152  0.38269317  0.58364973     0.03100
C388        C  0.50827626  0.40729645  0.57527359    -0.11100
C389        C  0.49700282  0.40667815  0.55641462    -0.01100
C390        C  0.49623099  0.38209778  0.54613462    -0.06300
H391        H  0.52774544  0.33939782  0.57971134     0.06200
H392        H  0.48808800  0.42529842  0.54981530     0.09500
Br393      Br  0.06490349  0.33524752  0.53682714    -0.06000
Br394      Br  0.44458076  0.27730565  0.53172192    -0.02900
Br395      Br  0.53682902  0.38129091  0.60883234    -0.00100
Br396      Br  0.97979108  0.38284430  0.52065899    -0.04500
C397        C  0.05527844  0.23532866  0.22818504    -0.11900
C398        C  0.07685956  0.24428915  0.24003304     0.03600
C399        C  0.10222777  0.24936681  0.23179186    -0.12400
C400        C  0.10680361  0.24434988  0.21205517     0.18500
C401        C  0.08613730  0.23294461  0.20067212    -0.09500
C402        C  0.06049972  0.22870483  0.20876330    -0.02400
H403        H  0.11850002  0.25696273  0.24081045     0.05000
C404        C  0.13353963  0.24999887  0.20354614     0.20400
H405        H  0.04500663  0.21926709  0.20007914     0.10200
C406        C  0.15625390  0.23199628  0.20736848    -0.15800
C407        C  0.18043421  0.23357834  0.19670945     0.03100
C408        C  0.18189758  0.25355830  0.18183131    -0.11100
C409        C  0.15985470  0.27309154  0.17936643    -0.01100
C410        C  0.13584501  0.27149982  0.19016193    -0.06300
H411        H  0.15456678  0.21560704  0.21788277     0.06200
H412        H  0.16077009  0.28890504  0.16833886     0.09500
Br413      Br  0.09268573  0.22128947  0.17442393    -0.06000
Br414      Br  0.07313189  0.24891433  0.26762647    -0.02900
Br415      Br  0.20898525  0.20579389  0.20193744    -0.00100
Br416      Br  0.10607831  0.29814174  0.18552437    -0.04500
C417        C  0.45563571  0.24112016  0.21853260    -0.11900
C418        C  0.46067280  0.25010186  0.19934989     0.03600
C419        C  0.43861528  0.25754506  0.18679306    -0.12400
C420        C  0.41132868  0.25659039  0.19293635     0.18500
C421        C  0.40617635  0.24806864  0.21206628    -0.09500
C422        C  0.42813400  0.24050268  0.22462342    -0.02400
H423        H  0.44275650  0.26361034  0.17198048     0.05000
C424        C  0.38844098  0.26184980  0.17876942     0.20400
H425        H  0.42363116  0.23402488  0.23928037     0.10200
C426        C  0.38246168  0.24118576  0.16558248    -0.15800
C427        C  0.35883436  0.24346611  0.15381879     0.03100
C428        C  0.34039763  0.26673579  0.15526388    -0.11100
C429        C  0.34765140  0.28843491  0.16732173    -0.01100
C430        C  0.37151206  0.28613641  0.17899247    -0.06300
H431        H  0.39575530  0.22274182  0.16492549     0.06200
H432        H  0.33401096  0.30656439  0.16851133     0.09500
Br433      Br  0.36937854  0.24532107  0.22139455    -0.06000
Br434      Br  0.49672998  0.25085020  0.18860422    -0.02900
Br435      Br  0.35292391  0.21394294  0.13613597    -0.00100
Br436      Br  0.37980983  0.31618303  0.19548637    -0.04500
C437        C  0.24862704  0.17586174  0.08846972    -0.11900
C438        C  0.26957150  0.17146765  0.07442261     0.03600
C439        C  0.26882243  0.14912853  0.06178392    -0.12400
C440        C  0.24797388  0.13054301  0.06298272     0.18500
C441        C  0.22831982  0.13367750  0.07776792    -0.09500
C442        C  0.22842646  0.15641722  0.09001416    -0.02400
H443        H  0.28444885  0.14641106  0.05073239     0.05000
C444        C  0.24749582  0.10766668  0.04897721     0.20400
H445        H  0.21235348  0.15900292  0.10068620     0.10200
C446        C  0.26870228  0.08717562  0.04966747    -0.15800
C447        C  0.26836275  0.06459149  0.03729435     0.03100
C448        C  0.24634599  0.06207748  0.02400693    -0.11100
C449        C  0.22570380  0.08318976  0.02275428    -0.01100
C450        C  0.22635013  0.10606464  0.03493291    -0.06300
H451        H  0.28542534  0.08860111  0.06005954     0.06200
H452        H  0.20886361  0.08168700  0.01247424     0.09500
Br453      Br  0.20148753  0.10698092  0.08220121    -0.06000
Br454      Br  0.29936410  0.19513379  0.07077625    -0.02900
Br455      Br  0.29879630  0.03800108  0.03889359    -0.00100
Br456      Br  0.19837899  0.13490522  0.03158007    -0.04500
C457        C  0.24936689  0.34531582  0.08815302    -0.11900
C458        C  0.24036235  0.34336277  0.06859336     0.03600
C459        C  0.23626073  0.36702842  0.05720048    -0.12400
C460        C  0.24107941  0.39285771  0.06479312     0.18500
C461        C  0.24896079  0.39509455  0.08442080    -0.09500
C462        C  0.25312339  0.37147049  0.09589861    -0.07200
H463        H  0.23045268  0.36517071  0.04203608     0.05000
C464        C  0.24066568  0.41667231  0.05143718     0.20400
H465        H  0.25977825  0.37355672  0.11086544     0.10200
C466        C  0.21578124  0.43126476  0.04703189    -0.15800
C467        C  0.21520361  0.45380162  0.03431601     0.03100
C468        C  0.23963377  0.46142257  0.02536442    -0.11100
C469        C  0.26443083  0.44672300  0.02976739    -0.01100
C470        C  0.26510302  0.42458506  0.04273252    -0.06300
H471        H  0.19691039  0.42540323  0.05374931     0.06200
H472        H  0.28346153  0.45297485  0.02350363     0.09500
Br473      Br  0.25512934  0.42995435  0.09588691    -0.06000
Br474      Br  0.23599949  0.30921741  0.05564972    -0.02900
Br475      Br  0.18090137  0.47419974  0.03013088    -0.00100
Br476      Br  0.29996576  0.40607676  0.04855855    -0.04500
C477        C  0.24364581  0.06160888  0.97960966    -0.11900
C478        C  0.22361677  0.06680414  0.96487740     0.03600
C479        C  0.22528575  0.08935947  0.95247500    -0.12400
C480        C  0.24581449  0.10824258  0.95486796     0.18500
C481        C  0.26486535  0.10410119  0.97038152    -0.09500
C482        C  0.26418778  0.08054280  0.98214433    -0.02400
H483        H  0.20984577  0.09261659  0.94113682     0.05000
C484        C  0.24472103  0.13317102  0.94213324     0.20400
H485        H  0.27955720  0.07725042  0.99351119     0.10200
C486        C  0.21972573  0.14880407  0.94069442    -0.15800
C487        C  0.21652892  0.17117779  0.92802676     0.03100
C488        C  0.23903112  0.17961399  0.91719062    -0.11100
C489        C  0.26416776  0.16418208  0.91852520    -0.01100
C490        C  0.26683631  0.14051652  0.93029338    -0.06300
H491        H  0.20226170  0.14318382  0.94921748     0.06200
H492        H  0.28133482  0.16980040  0.90970707     0.09500
Br493      Br  0.29048340  0.13101369  0.97736872    -0.06000
Br494      Br  0.19205058  0.04520275  0.96187770    -0.02900
Br495      Br  0.18067755  0.18923479  0.92600586    -0.00100
Br496      Br  0.29977154  0.11743759  0.92789358    -0.04500
C497        C  0.24891830  0.34682160  0.91615972    -0.11900
C498        C  0.26095153  0.37182538  0.91212105     0.03600
C499        C  0.25915437  0.39327420  0.92559116    -0.12400
C500        C  0.24541434  0.39041400  0.94325093     0.18500
C501        C  0.23260216  0.36582057  0.94709669    -0.09500
C502        C  0.23438888  0.34435247  0.93361938    -0.02400
H503        H  0.26847507  0.41236867  0.92225492     0.05000
C504        C  0.24419772  0.41359007  0.95717721     0.20400
H505        H  0.22515737  0.32527048  0.93712840     0.10200
C506        C  0.21936474  0.42910061  0.95947625    -0.15800
C507        C  0.21791774  0.45216148  0.97153230     0.03100
C508        C  0.24151884  0.45997496  0.98168645    -0.11100
C509        C  0.26627248  0.44423730  0.97961376    -0.01100
C510        C  0.26776236  0.42123125  0.96747646    -0.06300
H511        H  0.20117020  0.42355873  0.95153241     0.06200
H512        H  0.28468059  0.45029577  0.98705092     0.09500
Br513      Br  0.21356114  0.36018793  0.97094745    -0.06000
Br514      Br  0.27858710  0.37857456  0.88805349    -0.02900
Br515      Br  0.18339376  0.47265419  0.97333547    -0.00100
Br516      Br  0.30243492  0.40098131  0.96528198    -0.04500
C517        C  0.01039674  0.05359120  0.67807687    -0.11900
C518        C  0.02408042  0.07730589  0.67303512     0.03600
C519        C  0.02177448  0.10029518  0.68480576    -0.12400
C520        C  0.00590790  0.10023744  0.70159009     0.18500
C521        C  0.49223114  0.07664816  0.70680386    -0.09500
C522        C  0.49472298  0.05327832  0.69506553    -0.02400
H523        H  0.03238834  0.11842277  0.68083657     0.05000
C524        C  0.00424582  0.12536430  0.71319881     0.20400
H525        H  0.48395399  0.03520422  0.69890442     0.10200
C526        C  0.48294326  0.14494973  0.70946836    -0.15800
C527        C  0.48270331  0.17067184  0.71824824     0.03100
C528        C  0.00415865  0.17722303  0.73137457    -0.11100
C529        C  0.02546471  0.15698832  0.73495913    -0.01100
C530        C  0.02569906  0.13150756  0.72588060    -0.06300
H531        H  0.46677885  0.14043462  0.69920774     0.06200
H532        H  0.04244529  0.16033489  0.74459028     0.09500
Br533      Br  0.46990511  0.07580422  0.72957341    -0.06000
Br534      Br  0.04679623  0.07955130  0.65047661    -0.02900
Br535      Br  0.45248119  0.19575483  0.71102232    -0.00100
Br536      Br  0.05625731  0.10581897  0.73071301    -0.04500
C537        C  0.50045184  0.27954031  0.72363135    -0.11900
C538        C  0.47614078  0.29113248  0.71510959     0.03600
C539        C  0.47726479  0.31378968  0.70268888    -0.12400
C540        C  0.50259086  0.32419855  0.69752439     0.18500
C541        C  0.02704661  0.31194115  0.70573796    -0.09500
C542        C  0.02571730  0.29010388  0.71886651    -0.02400
H543        H  0.45825639  0.32307714  0.69682667     0.05000
C544        C  0.50302858  0.34848563  0.68436038     0.20400
H545        H  0.04459110  0.28064121  0.72485297     0.10200
C546        C  0.01650617  0.37152992  0.69071446    -0.15800
C547        C  0.01796503  0.39474877  0.67897555     0.03100
C548        C  0.50471622  0.39585706  0.66062104    -0.11100
C549        C  0.49032010  0.37329777  0.65443810    -0.01100
C550        C  0.48972211  0.34955981  0.66595800    -0.06300
H551        H  0.02596081  0.37152184  0.70503556     0.06200
H552        H  0.47998253  0.37393151  0.64040896     0.09500
Br553      Br  0.06302042  0.32274511  0.69866327    -0.06000
Br554      Br  0.44117643  0.27574635  0.71898634    -0.02900
Br555      Br  0.03712442  0.42483183  0.68949287    -0.00100
Br556      Br  0.47146265  0.31901622  0.65535771    -0.04500
C557        C  0.16288140  0.25711502  0.84124917    -0.11900
C558        C  0.14548328  0.23476027  0.84173807     0.03600
C559        C  0.12208905  0.23474815  0.82960233    -0.12400
C560        C  0.11555475  0.25649477  0.81671545     0.18500
C561        C  0.13230387  0.27905990  0.81653606    -0.09500
C562        C  0.15548967  0.27932380  0.82875436    -0.02400
H563        H  0.10925643  0.21729735  0.82986244     0.05000
C564        C  0.09228575  0.25436855  0.80273727     0.20400
H565        H  0.16828279  0.29676201  0.82796363     0.10200
C566        C  0.06503051  0.25902172  0.80896295    -0.15800
C567        C  0.04269382  0.25489632  0.79637726     0.03100
C568        C  0.04751157  0.24570574  0.77721140    -0.11100
C569        C  0.07487536  0.24213118  0.77088165    -0.01100
C570        C  0.09706779  0.24628792  0.78340116    -0.06300
H571        H  0.06112581  0.26523285  0.82382642     0.06200
H572        H  0.07904539  0.23518665  0.75620880     0.09500
Br573      Br  0.12469501  0.30963232  0.79938560    -0.06000
Br574      Br  0.15213522  0.20354309  0.85847139    -0.02900
Br575      Br  0.00634336  0.25993229  0.80670538    -0.00100
Br576      Br  0.13361348  0.23910450  0.77375701    -0.04500
C577        C  0.45066585  0.24270628  0.77445197    -0.11900
C578        C  0.44082685  0.22452602  0.78849890     0.03600
C579        C  0.41579999  0.23066943  0.79768948    -0.12400
C580        C  0.40014209  0.25478861  0.79330656     0.18500
C581        C  0.41043488  0.27360149  0.78001189    -0.09500
C582        C  0.43569817  0.26760056  0.77086690    -0.02400
H583        H  0.40855668  0.21660370  0.80847411     0.05000
C584        C  0.37445908  0.26061172  0.80425375     0.20400
H585        H  0.44331748  0.28215212  0.76063025     0.10200
C586        C  0.37672439  0.26858176  0.82365795    -0.15800
C587        C  0.35358861  0.27136563  0.83546455     0.03100
C588        C  0.32723353  0.26597053  0.82789745    -0.11100
C589        C  0.32483683  0.25885519  0.80819489    -0.01100
C590        C  0.34826999  0.25588109  0.79642814    -0.06300
H591        H  0.39680213  0.27228314  0.82975463     0.06200
H592        H  0.30486135  0.25477549  0.80210790     0.09500
Br593      Br  0.39074321  0.30762630  0.77400453    -0.06000
Br594      Br  0.46140719  0.19184880  0.79681057    -0.02900
Br595      Br  0.35974340  0.28362185  0.86161238    -0.00100
Br596      Br  0.34389158  0.24401231  0.77011047    -0.04500
C597        C  0.31785604  0.50752789  0.72722204    -0.11900
C598        C  0.31657321  0.49825358  0.70784685     0.03600
C599        C  0.34096678  0.49298692  0.69747013    -0.12400
C600        C  0.36675411  0.49661807  0.70611010     0.18500
C601        C  0.36791211  0.00463645  0.72560258    -0.09500
C602        C  0.34366968  0.00994774  0.73593122    -0.02400
H603        H  0.33982286  0.48658511  0.68243442     0.05000
C604        C  0.39195827  0.49294901  0.69434539     0.20400
H605        H  0.34514383  0.01684937  0.75083620     0.10200
C606        C  0.39766195  0.01269176  0.68070434    -0.15800
C607        C  0.42128074  0.01004907  0.66923504     0.03100
C608        C  0.43967026  0.48711951  0.67138150    -0.11100
C609        C  0.43376619  0.46702801  0.68519652    -0.01100
C610        C  0.41005872  0.46971601  0.69654641    -0.06300
H611        H  0.38388528  0.03070086  0.67907280     0.06200
H612        H  0.44720125  0.44875450  0.68676527     0.09500
Br613      Br  0.40226263  0.01089040  0.73833890    -0.06000
Br614      Br  0.28249240  0.49436995  0.69423549    -0.02900
Br615      Br  0.42849309  0.03956407  0.65183800    -0.00100
Br616      Br  0.40268842  0.44078071  0.71438449    -0.04500
C617        C  0.22072228  0.51516746  0.72230318    -0.11900
C618        C  0.21540426  0.03196587  0.70606746     0.03600
C619        C  0.19296588  0.02775851  0.69369208    -0.12400
C620        C  0.17486646  0.50750239  0.69745343     0.18500
C621        C  0.18001113  0.49034050  0.71379832    -0.09500
C622        C  0.20298787  0.49401122  0.72586945    -0.02400
H623        H  0.18941534  0.04106965  0.68119014     0.05000
C624        C  0.15002752  0.50501560  0.68476107     0.20400
H625        H  0.20630247  0.48109273  0.73860504     0.10200
C626        C  0.14683917  0.48111850  0.67382036    -0.15800
C627        C  0.12322488  0.47789916  0.66225680     0.03100
C628        C  0.10199124  0.99864240  0.66133327    -0.11100
C629        C  0.10585504  0.02292515  0.67172809    -0.01100
C630        C  0.12926665  0.02600548  0.68337351    -0.06300
H631        H  0.16278354  0.46480224  0.67435595     0.06200
H632        H  0.09002327  0.03933936  0.67145566     0.09500
Br633      Br  0.15497013  0.46318389  0.72117106    -0.06000
Br634      Br  0.23864855  0.06127370  0.69989191    -0.02900
Br635      Br  0.12146740  0.44477461  0.64752429    -0.00100
Br636      Br  0.13113065  0.05923973  0.69801606    -0.04500
C637        C  0.25851438  0.19219610  0.83329665    -0.11900
C638        C  0.27629320  0.16967885  0.83901648     0.03600
C639        C  0.27821495  0.14606147  0.82746489    -0.12400
C640        C  0.26297109  0.14450708  0.81011839     0.18500
C641        C  0.24588787  0.16712420  0.80417976    -0.09500
C642        C  0.24378207  0.19056471  0.81567940    -0.02400
H643        H  0.29166481  0.12880721  0.83202004     0.05000
C644        C  0.26483977  0.11926367  0.79827937     0.20400
H645        H  0.23000571  0.20743927  0.81090178     0.10200
C646        C  0.24195698  0.10319153  0.79679368    -0.15800
C647        C  0.24231235  0.08001662  0.78489441     0.03100
C648        C  0.26592631  0.07262145  0.77362882    -0.11100
C649        C  0.28911512  0.08868561  0.77581056    -0.01100
C650        C  0.28871347  0.11157982  0.78794551    -0.06300
H651        H  0.22362475  0.10875000  0.80501977     0.06200
H652        H  0.30830366  0.08354477  0.76867651     0.09500
Br653      Br  0.22528865  0.16717773  0.78025042    -0.06000
Br654      Br  0.29929755  0.17008099  0.86184301    -0.02900
Br655      Br  0.20988139  0.05913302  0.78551887    -0.00100
Br656      Br  0.32130176  0.13196855  0.78975858    -0.04500
C657        C  0.26424280  0.47062764  0.77497497    -0.11900
C658        C  0.28247796  0.44758515  0.77201348     0.03600
C659        C  0.28125990  0.42452931  0.78413741    -0.12400
C660        C  0.26244237  0.42406467  0.79947918     0.18500
C661        C  0.24451711  0.44717220  0.80256836    -0.09500
C662        C  0.24517721  0.46980618  0.79017809    -0.02400
H663        H  0.29549517  0.40707197  0.78186168     0.05000
C664        C  0.26258732  0.39984818  0.81257396     0.20400
H665        H  0.23122784  0.48735472  0.79287311     0.10200
C666        C  0.28637668  0.39234842  0.82342645    -0.15800
C667        C  0.28730173  0.36962737  0.83599379     0.03100
C668        C  0.26350461  0.35444426  0.83849335    -0.11100
C669        C  0.23982235  0.36211521  0.82736175    -0.01100
C670        C  0.23946757  0.38394192  0.81419918    -0.06300
H671        H  0.30450885  0.40411660  0.82192974     0.06200
H672        H  0.22158961  0.35039023  0.82822206     0.09500
Br673      Br  0.22033473  0.45001341  0.82445869    -0.06000
Br674      Br  0.31118772  0.44701612  0.75311028    -0.02900
Br675      Br  0.32212511  0.36045311  0.84843169    -0.00100
Br676      Br  0.20764955  0.38970561  0.79765085    -0.04500
C677        C  0.17357322  0.26152927  0.07957940    -0.11900
C678        C  0.14652271  0.25927402  0.08673089     0.03600
C679        C  0.12398231  0.26152808  0.07395621    -0.12400
C680        C  0.12761050  0.26581417  0.05405211     0.18500
C681        C  0.15436111  0.26780962  0.04683243    -0.09500
C682        C  0.17704997  0.26523770  0.05950009    -0.02400
H683        H  0.10343397  0.25949641  0.07954323     0.05000
C684        C  0.10308255  0.26730056  0.04116735     0.20400
H685        H  0.19747833  0.26621265  0.05358190     0.10200
C686        C  0.08822711  0.29244731  0.03859166    -0.15800
C687        C  0.06324688  0.29392445  0.02826933     0.03100
C688        C  0.05292353  0.27002100  0.02025253    -0.11100
C689        C  0.06821063  0.24501499  0.02232598    -0.01100
C690        C  0.09302620  0.24348483  0.03283509    -0.06300
H691        H  0.09574696  0.31083149  0.04505683     0.06200
H692        H  0.06035278  0.22650303  0.01628434     0.09500
Br693      Br  0.16082307  0.27433937  0.01986325    -0.06000
Br694      Br  0.13854829  0.25087380  0.11336517    -0.02900
Br695      Br  0.04362863  0.32883973  0.02570792    -0.00100
Br696      Br  0.11183754  0.20831117  0.03636735    -0.04500
C697        C  0.32397064  0.26627146  0.07634782    -0.11900
C698        C  0.32629008  0.26401290  0.05586152     0.03600
C699        C  0.35208661  0.26514665  0.04715048    -0.12400
C700        C  0.37580889  0.26873375  0.05829459     0.18500
C701        C  0.37370961  0.27130500  0.07853902    -0.09500
C702        C  0.34805443  0.26996155  0.08738849    -0.02400
H703        H  0.35369557  0.26325149  0.03150684     0.05000
C704        C  0.40257921  0.26914978  0.04842463     0.20400
H705        H  0.34706235  0.27189814  0.10304766     0.10200
C706        C  0.41270272  0.29426635  0.04270354    -0.15800
C707        C  0.43700573  0.29501158  0.03202077     0.03100
C708        C  0.45136543  0.27038000  0.02691314    -0.11100
C709        C  0.44169097  0.24534604  0.03316441    -0.01100
C710        C  0.41737839  0.24458037  0.04376793    -0.06300
H711        H  0.40140698  0.31326029  0.04625923     0.06200
H712        H  0.45280131  0.22632463  0.02944076     0.09500
Br713      Br  0.40537972  0.27654087  0.09463028    -0.06000
Br714      Br  0.29564339  0.25993130  0.03849465    -0.02900
Br715      Br  0.44967414  0.32991494  0.02435224    -0.00100
Br716      Br  0.40468642  0.20960290  0.05124410    -0.04500
C717        C  0.04666888  0.26778414  0.97744107    -0.11900
C718        C  0.05515072  0.24377816  0.96740891     0.03600
C719        C  0.07850103  0.24358130  0.95567648    -0.12400
C720        C  0.09389329  0.26694964  0.95410728     0.18500
C721        C  0.08546791  0.29089271  0.96417289    -0.09500
C722        C  0.06181755  0.29127215  0.97556194    -0.02400
H723        H  0.08527877  0.22488578  0.94833748     0.05000
C724        C  0.12024756  0.26525722  0.94365856     0.20400
H725        H  0.05553563  0.30976183  0.98329652     0.10200
C726        C  0.12211902  0.27697293  0.92510829    -0.15800
C727        C  0.14735393  0.27657720  0.91541313     0.03100
C728        C  0.17123865  0.26468871  0.92453599    -0.11100
C729        C  0.16924504  0.25361404  0.94330081    -0.01100
C730        C  0.14395220  0.25323047  0.95263967    -0.06300
H731        H  0.10394731  0.28660328  0.91824439     0.06200
H732        H  0.18730704  0.24424041  0.95047603     0.09500
Br733      Br  0.10674153  0.32284621  0.96379302    -0.06000
Br734      Br  0.03675973  0.21029611  0.97053429    -0.02900
Br735      Br  0.14819920  0.29414425  0.89044469    -0.00100
Br736      Br  0.14256095  0.23565280  0.97754976    -0.04500
C737        C  0.44521800  0.26646102  0.98446355    -0.11900
C738        C  0.43458790  0.24090859  0.98024520     0.03600
C739        C  0.40931842  0.23970851  0.97049230    -0.12400
C740        C  0.39437538  0.26375966  0.96467979     0.18500
C741        C  0.40461449  0.28937407  0.96950880    -0.09500
C742        C  0.42993727  0.29053217  0.97924538    -0.02400
H743        H  0.40158877  0.21991801  0.96698888     0.05000
C744        C  0.36920763  0.26169259  0.95252768     0.20400
H745        H  0.43800387  0.31027715  0.98240678     0.10200
C746        C  0.34341587  0.27049982  0.95982611    -0.15800
C747        C  0.31955089  0.27022271  0.94820537     0.03100
C748        C  0.32129563  0.26091514  0.92873093    -0.11100
C749        C  0.34714366  0.25102401  0.92187888    -0.01100
C750        C  0.37082837  0.25141201  0.93347981    -0.06300
H751        H  0.34193367  0.27807019  0.97458096     0.06200
H752        H  0.34926832  0.24364989  0.90711634     0.09500
Br753      Br  0.38554919  0.32330225  0.96226168    -0.06000
Br754      Br  0.45429063  0.20717955  0.98706090    -0.02900
Br755      Br  0.28579767  0.28355121  0.95994942    -0.00100
Br756      Br  0.40521327  0.23921895  0.92210238    -0.04500
C757        C  0.28709563  0.49180166  0.28052808    -0.11900
C758        C  0.28534921  0.00351899  0.29909841     0.03600
C759        C  0.30695796  0.99838175  0.31249776    -0.12400
C760        C  0.33111439  0.48209168  0.30734633     0.18500
C761        C  0.33232845  0.47063415  0.28853986    -0.09500
C762        C  0.31030087  0.47527324  0.27546143    -0.02400
H763        H  0.30576312  0.00781378  0.32670264     0.05000
C764        C  0.35508011  0.47920223  0.32104845     0.20400
H765        H  0.31177001  0.46678892  0.26100517     0.10200
C766        C  0.36494078  0.45310604  0.32746258    -0.15800
C767        C  0.38928585  0.44954477  0.33860713     0.03100
C768        C  0.40422865  0.47256749  0.34382629    -0.11100
C769        C  0.39304330  0.99912591  0.33778668    -0.01100
C770        C  0.36903812  0.00244818  0.32651568    -0.06300
H771        H  0.35406994  0.43525751  0.32322554     0.06200
H772        H  0.40399030  0.01728256  0.34111395     0.09500
Br773      Br  0.36451800  0.45050310  0.27932200    -0.06000
Br774      Br  0.25498040  0.02777664  0.30643957    -0.02900
Br775      Br  0.40117279  0.41261381  0.34529436    -0.00100
Br776      Br  0.35852831  0.03877007  0.31744726    -0.04500
C777        C  0.19113751  0.49119163  0.27360542    -0.11900
C778        C  0.16409108  0.99251415  0.26542731     0.03600
C779        C  0.14136092  0.98920421  0.27731408    -0.12400
C780        C  0.14486785  0.48370889  0.29705247     0.18500
C781        C  0.17158883  0.48044579  0.30503703    -0.09500
C782        C  0.19449323  0.48407715  0.29328867    -0.02400
H783        H  0.12083633  0.99122554  0.27105713     0.05000
C784        C  0.12012416  0.48286431  0.30930094     0.20400
H785        H  0.21490486  0.48218382  0.29969605     0.10200
C786        C  0.10444096  0.45961203  0.30907807    -0.15800
C787        C  0.08039541  0.45875520  0.32007191     0.03100
C788        C  0.07157717  0.48150013  0.33130264    -0.11100
C789        C  0.08929685  0.00272281  0.33384736    -0.01100
C790        C  0.11323220  0.00385163  0.32283709    -0.06300
H791        H  0.11098201  0.44207480  0.30036099     0.06200
H792        H  0.08420759  0.01903390  0.34404190     0.09500
Br793      Br  0.17759504  0.47150590  0.33194845    -0.06000
Br794      Br  0.15716830  0.99793828  0.23810384    -0.02900
Br795      Br  0.06082295  0.42601633  0.31951594    -0.00100
Br796      Br  0.13494003  0.03530262  0.32560473    -0.04500
C797        C  0.24416848  0.16511577  0.16193642    -0.11900
C798        C  0.22486284  0.14482935  0.15923813     0.03600
C799        C  0.22626471  0.12126150  0.17094178    -0.12400
C800        C  0.24578233  0.11798106  0.18603396     0.18500
C801        C  0.26489288  0.13823480  0.18885059    -0.09500
C802        C  0.26431478  0.16118227  0.17664482    -0.02400
H803        H  0.21138532  0.10581213  0.16872681     0.05000
C804        C  0.24473173  0.09427973  0.19946759     0.20400
H805        H  0.27882105  0.17681196  0.17942932     0.10200
C806        C  0.26662976  0.07453031  0.20030153    -0.15800
C807        C  0.26626175  0.05213544  0.21308700     0.03100
C808        C  0.24337606  0.04886980  0.22547911    -0.11100
C809        C  0.22164350  0.06924060  0.22448708    -0.01100
C810        C  0.22216858  0.09149284  0.21173649    -0.06300
H811        H  0.28416285  0.07656368  0.19090403     0.06200
H812        H  0.20377466  0.06869194  0.23350399     0.09500
Br813      Br  0.29042935  0.13685524  0.21030415    -0.06000
Br814      Br  0.19577513  0.14808978  0.14026562    -0.02900
Br815      Br  0.29787042  0.02685155  0.21249526    -0.00100
Br816      Br  0.19172111  0.11816899  0.21214790    -0.04500
C817        C  0.24002222  0.32657681  0.17326974    -0.11900
C818        C  0.23968199  0.32376509  0.19375220     0.03600
C819        C  0.23772960  0.34715397  0.20545554    -0.12400
C820        C  0.23581816  0.37336763  0.19711840     0.18500
C821        C  0.23423390  0.37618903  0.17681239    -0.09500
C822        C  0.23620131  0.35295147  0.16507931    -0.02400
H823        H  0.23853865  0.34492857  0.22112467     0.05000
C824        C  0.23818196  0.39761809  0.20955924     0.20400
H825        H  0.23608341  0.35572578  0.14944917     0.10200
C826        C  0.26357132  0.40983230  0.21054820    -0.15800
C827        C  0.26627038  0.43428796  0.22062832     0.03100
C828        C  0.24343762  0.44657605  0.23023651    -0.11100
C829        C  0.21828160  0.43378809  0.22991678    -0.01100
C830        C  0.21544731  0.40954561  0.21947159    -0.06300
H831        H  0.28114671  0.40069826  0.20293165     0.06200
H832        H  0.20051424  0.44334418  0.23706693     0.09500
Br833      Br  0.23057756  0.41152403  0.16450339    -0.06000
Br834      Br  0.24162733  0.28887672  0.20676822    -0.02900
Br835      Br  0.30132988  0.45036953  0.22046864    -0.00100
Br836      Br  0.17991631  0.39446161  0.21791351    -0.04500
C837        C  0.24236434  0.52406136  0.23908324     0.86600
C838        C  0.24451565  0.49708243  0.22762339    -0.53700
C839        C  0.24427689  0.97366859  0.23877810     0.09500
C840        C  0.24167011  0.97934273  0.26060169     0.20500
C841        C  0.21598034  0.52152311  0.25125624    -0.54400
C842        C  0.21523951  0.99776744  0.26201926     0.09600
C843        C  0.26571611  0.52151991  0.25433181    -0.53900
C844        C  0.26523562  0.99810450  0.26548486     0.10200
H845        H  0.24470494  0.99580700  0.21173872     0.14700
H846        H  0.24159250  0.96047099  0.26964886     0.00400
H847        H  0.19856945  0.53618156  0.25156062     0.15000
H848        H  0.28120198  0.53657696  0.25596736     0.14800
C849        C  0.47236977  0.76682865  0.99392981     0.02400
C850        C  0.47546250  0.76921518  0.01424712     0.02300
C851        C  0.00184085  0.77036404  0.02244232    -0.18200
C852        C  0.02528275  0.76926498  0.01068776     0.02400
C853        C  0.02221987  0.76694468  0.99033094     0.02300
C854        C  0.99576557  0.76586959  0.98215226    -0.18200
H855        H  0.99336990  0.76424443  0.96651825     0.04400
H856        H  0.00416564  0.77180707  0.03809224     0.04400
C857        C  0.26712357  0.54674187  0.76108555     0.86600
C858        C  0.29264665  0.54112013  0.74831486    -0.53700
C859        C  0.29288847  0.01670305  0.73841411     0.09500
C860        C  0.26714129  0.00016253  0.74197876     0.20500
C861        C  0.24305388  0.54484998  0.74660465    -0.54400
C862        C  0.24261026  0.02040564  0.73679998     0.09600
C863        C  0.26633297  0.02102534  0.77400175    -0.53900
C864        C  0.26623037  0.99677190  0.76428431     0.10200
H865        H  0.30922913  0.55482306  0.74660623     0.14700
H866        H  0.26689572  0.98047587  0.73403240     0.00400
H867        H  0.22738256  0.56125393  0.74442097     0.15000
H868        H  0.26602515  0.02215673  0.78977235     0.14800
C869        C  0.00351973  0.70511966  0.74157612     0.86600
C870        C  0.00314972  0.72907667  0.72713356    -0.53700
C871        C  0.00028223  0.75424266  0.73549864     0.09500
C872        C  0.99883776  0.75351791  0.75790654     0.20500
C873        C  0.02725572  0.71113917  0.75575608    -0.54400
C874        C  0.02505316  0.73640075  0.76424632     0.09600
C875        C  0.47757590  0.70992387  0.75373975    -0.53900
C876        C  0.47492684  0.73491591  0.76244955     0.10200
H877        H  0.00510078  0.72638808  0.71153142     0.14700
H878        H  0.49683034  0.77416977  0.76457097     0.00400
H879        H  0.04478873  0.69737949  0.75904742     0.15000
H880        H  0.46214451  0.69476426  0.75501037     0.14800
C881        C  0.24165547  0.98602759  0.99288277     0.02400
C882        C  0.24045189  0.98679219  0.01336187     0.02300
C883        C  0.24137590  0.51174904  0.02289595    -0.18200
C884        C  0.24336715  0.53648461  0.01262148     0.02400
C885        C  0.24287822  0.53620385  0.99198730     0.02300
C886        C  0.24266330  0.51070262  0.98247922    -0.18200
H887        H  0.24354213  0.51006265  0.96675445     0.04400
H888        H  0.24100517  0.51204569  0.03864921     0.04400
O889        O  0.23298741  0.80671080  0.90143432    -0.80000
O890        O  0.20186016  0.77977366  0.85341279    -0.80100
O891        O  0.28471957  0.81774320  0.85844660    -0.80100
O892        O  0.19976281  0.75781677  0.89646888    -0.80000
O893        O  0.24062875  0.81745383  0.85219143    -0.80100
O894        O  0.21974102  0.76422190  0.92491924    -0.80100
O895        O  0.20103244  0.73649415  0.85966155    -0.80000
O896        O  0.27704716  0.81480018  0.89796951    -0.80100
C897        C  0.25290623  0.82211332  0.90391537     1.09600
C898        C  0.18930029  0.75794556  0.85244375     1.09500
C899        C  0.26297413  0.82921785  0.85105850     1.09700
C900        C  0.19795163  0.76213164  0.91497252     1.09500
O901        O  0.25068442  0.72459614  0.90663192    -0.80000
O902        O  0.27954462  0.77823514  0.83442564    -0.80100
O903        O  0.30174124  0.75794419  0.89712935    -0.80100
O904        O  0.25660443  0.71574589  0.86370471    -0.80000
O905        O  0.24219568  0.73889823  0.83759307    -0.80100
O906        O  0.27380297  0.77202942  0.91937578    -0.80100
O907        O  0.21749800  0.70484699  0.89082562    -0.80000
O908        O  0.30527330  0.76122115  0.85832940    -0.80100
Co909      Co  0.24097052  0.76673505  0.90209287     1.51500
Co910      Co  0.24121589  0.77832803  0.84625767     1.51700
Co911      Co  0.29021515  0.78651808  0.87794538     1.51600
Co912      Co  0.23084461  0.73755045  0.88019218     1.51500
O913        O  0.25313150  0.77001485  0.87421487    -1.42000
C914        C  0.23535730  0.70392858  0.90431772     1.09600
C915        C  0.30252740  0.76786326  0.84072396     1.09700
C916        C  0.29757220  0.76300815  0.91476154     1.09600
C917        C  0.25303273  0.71714861  0.84545234     1.09600
O918        O  0.29804199  0.78878222  0.14213534    -0.80000
O919        O  0.22179270  0.70848066  0.10695070    -0.80100
O920        O  0.26434677  0.70454086  0.14923757    -0.80100
O921        O  0.27517568  0.76032681  0.07781913    -0.80000
O922        O  0.21949368  0.70313663  0.14622520    -0.80100
O923        O  0.29612669  0.77102316  0.10504632    -0.80100
O924        O  0.26532688  0.71700386  0.10190473    -0.80000
O925        O  0.30032558  0.74470643  0.14564854    -0.80100
C926        C  0.31195824  0.76699782  0.14670025     1.09600
C927        C  0.24550255  0.70136033  0.10013879     1.09500
C928        C  0.24267603  0.69172989  0.15108958     1.09700
C929        C  0.29707684  0.76610223  0.08659001     1.09500
O930        O  0.27450382  0.82189340  0.11331258    -0.80000
O931        O  0.19692981  0.75883254  0.14948791    -0.80100
O932        O  0.26093289  0.78242666  0.16617755    -0.80100
O933        O  0.22143063  0.75103892  0.08616006    -0.80000
O934        O  0.19591159  0.76420805  0.11022128    -0.80100
O935        O  0.24027215  0.80550852  0.14208386    -0.80100
O936        O  0.24398000  0.79825792  0.09755718    -0.80000
O937        O  0.22714290  0.74108509  0.17052512    -0.80100
Co938      Co  0.26553760  0.78738686  0.12356502     1.51500
Co939      Co  0.21023466  0.73526532  0.12817028     1.51700
Co940      Co  0.26296575  0.74345737  0.15618934     1.51600
Co941      Co  0.25614513  0.75666296  0.10154562     1.51500
O942        O  0.24682424  0.75287631  0.12970401    -1.42000
C943        C  0.25625640  0.82085228  0.10010576     1.09600
C944        C  0.20335443  0.75185146  0.16667881     1.09700
C945        C  0.24639807  0.80321984  0.15996201     1.09600
C946        C  0.19805729  0.75924326  0.09240310     1.09600
O947        O  0.06142907  0.51730670  0.64531797    -0.80000
O948        O  0.50208634  0.93397052  0.60420915    -0.80100
O949        O  0.02659105  0.93306238  0.64659656    -0.80100
O950        O  0.05200357  0.96987751  0.60093409    -0.80000
O951        O  0.48269723  0.93162611  0.64126996    -0.80100
O952        O  0.05653611  0.51408337  0.60614036    -0.80100
O953        O  0.00964786  0.95594432  0.57676515    -0.80000
O954        O  0.06449252  0.97259860  0.65033700    -0.80100
C955        C  0.07523777  0.49591009  0.65114712     1.09600
C956        C  0.50665172  0.93358932  0.58570580     1.09500
C957        C  0.50478024  0.92058624  0.64823625     1.09700
C958        C  0.06583361  0.49113014  0.59936070     1.09500
O959        O  0.99846708  0.53434297  0.60899493    -0.80000
O960        O  0.46092453  0.98688168  0.64038123    -0.80100
O961        O  0.52425142  0.50786887  0.66990684    -0.80100
O962        O  0.46924191  0.98360053  0.59614522    -0.80000
O963        O  0.44899019  0.95051460  0.61124518    -0.80100
O964        O  0.00350835  0.53431975  0.64780323    -0.80100
O965        O  0.51437325  0.51061494  0.58500254    -0.80000
O966        O  0.48545440  0.97009892  0.66539202    -0.80100
Co967      Co  0.02862752  0.52315964  0.62706156     1.51500
Co968      Co  0.48214571  0.96313059  0.62222648     1.51700
Co969      Co  0.02486764  0.97101032  0.65618164     1.51600
Co970      Co  0.01168739  0.97548095  0.60044627     1.51500
O971        O  0.01472747  0.98499060  0.62888211    -1.42000
C972        C  0.00393424  0.53314840  0.59125729     1.09600
C973        C  0.46338963  0.98179932  0.65843291     1.09700
C974        C  0.01167409  0.53030929  0.66498700     1.09600
C975        C  0.44843502  0.96836462  0.59781774     1.09600
O976        O  0.02335955  0.99086398  0.33568139    -0.80000
O977        O  0.99656209  0.95430821  0.41644654    -0.80100
O978        O  0.05920270  0.51579713  0.38977273    -0.80100
O979        O  0.50091940  0.92684831  0.35351553    -0.80000
O980        O  0.04083505  0.98054951  0.40407339    -0.80100
O981        O  0.98171761  0.95502915  0.33203892    -0.80100
O982        O  0.50897706  0.92794930  0.39247577    -0.80000
O983        O  0.04918793  0.47782110  0.36132211    -0.80100
C984        C  0.04630652  0.98190429  0.34323216     1.09600
C985        C  0.50591729  0.93117453  0.41049440     1.09500
C986        C  0.06060859  0.99703468  0.40264596     1.09700
C987        C  0.49232233  0.93145990  0.33644687     1.09500
O988        O  0.44522881  0.99261311  0.35314629    -0.80000
O989        O  0.00151695  0.50919727  0.42392107    -0.80100
O990        O  0.02678208  0.53222426  0.35866898    -0.80100
O991        O  0.45263587  0.95100343  0.39684279    -0.80000
O992        O  0.45809356  0.99523783  0.40055974    -0.80100
O993        O  0.98324282  0.52960691  0.35513115    -0.80100
O994        O  0.44431942  0.94834076  0.35771763    -0.80000
O995        O  0.00570074  0.53077445  0.39593046    -0.80100
Co996      Co  0.98387784  0.99173460  0.34558428     1.51500
Co997      Co  0.99849043  0.98887947  0.40044903     1.51700
Co998      Co  0.02684636  0.50163008  0.37867077     1.51600
Co999      Co  0.47829871  0.94053550  0.37507302     1.51500
O1000       O  0.99479030  0.97778698  0.37239534    -1.42000
C1001       C  0.43219890  0.97105806  0.35257234     1.09600
C1002       C  0.00269340  0.53150487  0.41458207     1.09700
C1003       C  0.00428325  0.54245165  0.35194136     1.09600
C1004       C  0.44412102  0.97439176  0.40307137     1.09600
C1005       C  0.50123360  0.75697427  0.51137547     0.02400
C1006       C  0.50211146  0.75830978  0.49087932     0.02300
C1007       C  0.50158978  0.73398723  0.48013173    -0.18200
C1008       C  0.50026278  0.70837792  0.48940648     0.02400
C1009       C  0.49985966  0.70698155  0.50999586     0.02300
C1010       C  0.49999098  0.73142028  0.52069621    -0.18200
H1011       H  0.49969265  0.73051804  0.53643978     0.04400
H1012       H  0.50216038  0.73499537  0.46439701     0.04400
C1013       C  0.28004062  0.99040951  0.51021269     0.02400
C1014       C  0.27877514  0.98896595  0.48969795     0.02300
C1015       C  0.25303891  0.98983499  0.48025764    -0.18200
C1016       C  0.22828818  0.99359634  0.49046711     0.02400
C1017       C  0.22961948  0.99584396  0.51100254     0.02300
C1018       C  0.25543207  0.99442025  0.52046919    -0.18200
H1019       H  0.25630757  0.99548772  0.53619308     0.04400
H1020       H  0.25231407  0.98752973  0.46461187     0.04400
C1021       C  0.99962374  0.70637672  0.25977989     0.86600
C1022       C  0.47633647  0.70988466  0.24454129    -0.53700
C1023       C  0.47781285  0.73245706  0.23271471     0.09500
C1024       C  0.50288736  0.74956183  0.23729281     0.20500
C1025       C  0.02637636  0.70695484  0.24810010    -0.54400
C1026       C  0.02826540  0.72929044  0.23657515     0.09600
C1027       C  0.99903835  0.73397427  0.27066646    -0.53900
C1028       C  0.50018981  0.75673471  0.25898039     0.10200
H1029       H  0.45969239  0.69598969  0.24355338     0.14700
H1030       H  0.50398308  0.76775183  0.22778612     0.00400
H1031       H  0.04415917  0.69295087  0.25017698     0.15000
H1032       H  0.99796431  0.73539672  0.28638118     0.14800
C1033       C  0.49312035  0.90828707  0.32233799    -0.11900
C1034       C  0.47705562  0.90826798  0.30502119     0.03600
C1035       C  0.47788408  0.88498549  0.29308052    -0.12400
C1036       C  0.49411250  0.86144962  0.29814016     0.18500
C1037       C  0.01009084  0.86138515  0.31522853    -0.09500
C1038       C  0.00945185  0.88447992  0.32711266    -0.02400
H1039       H  0.46520193  0.88494206  0.28005647     0.05000
C1040       C  0.49316955  0.83637403  0.28623996     0.20400
H1041       H  0.02186634  0.88367684  0.34027150     0.10200
C1042       C  0.01185139  0.83200492  0.27109271    -0.15800
C1043       C  0.01390461  0.80690973  0.26124034     0.03100
C1044       C  0.49737436  0.78520666  0.26698293    -0.11100
C1045       C  0.47770719  0.79045510  0.28156750    -0.01100
C1046       C  0.47544533  0.81569048  0.29105709    -0.06300
H1047       H  0.02544258  0.84801016  0.26726367     0.06200
H1048       H  0.46410473  0.77467419  0.28580797     0.09500
Br1049     Br  0.03260957  0.82980275  0.32316589    -0.06000
Br1050     Br  0.45192947  0.93809007  0.29737906    -0.02900
Br1051     Br  0.04070804  0.80437390  0.24100713    -0.00100
Br1052     Br  0.44839802  0.82083747  0.31098509    -0.04500
C1053       C  0.00247905  0.56713662  0.33914980    -0.11900
C1054       C  0.98242477  0.57004299  0.32405311     0.03600
C1055       C  0.98124163  0.59326595  0.31208142    -0.12400
C1056       C  0.99993292  0.61377030  0.31441741     0.18500
C1057       C  0.02009894  0.61097400  0.32924083    -0.09500
C1058       C  0.02126011  0.58780772  0.34145675    -0.02400
H1059       H  0.96612704  0.59494303  0.30040372     0.05000
C1060       C  0.99918616  0.63676117  0.30024259     0.20400
H1061       H  0.03687788  0.58595844  0.35278148     0.10200
C1062       C  0.47921438  0.65838714  0.30175061    -0.15800
C1063       C  0.47789097  0.68011393  0.28824900     0.03100
C1064       C  0.99757633  0.68106949  0.27315978    -0.11100
C1065       C  0.01565005  0.65765728  0.27082545    -0.01100
C1066       C  0.01675660  0.63603718  0.28420008    -0.06300
H1067       H  0.46443730  0.65825408  0.31342598     0.06200
H1068       H  0.02879697  0.65528548  0.25836984     0.09500
Br1069     Br  0.04649843  0.63825273  0.33311767    -0.06000
Br1070     Br  0.95746281  0.54217552  0.31751766    -0.02900
Br1071     Br  0.44788959  0.70697244  0.29091574    -0.00100
Br1072     Br  0.04215403  0.60537336  0.27960092    -0.04500
C1073       C  0.00109514  0.55794933  0.42494320    -0.11900
C1074       C  0.48624372  0.58131657  0.41748380     0.03600
C1075       C  0.48644867  0.60618307  0.42755188    -0.12400
C1076       C  0.00189012  0.60840877  0.44473569     0.18500
C1077       C  0.01697575  0.58517445  0.45204524    -0.09500
C1078       C  0.01617742  0.56016280  0.44230914    -0.02400
H1079       H  0.47465322  0.62392324  0.42189757     0.05000
C1080       C  0.00128514  0.63482219  0.45521332     0.20400
H1081       H  0.02804915  0.54251834  0.44805218     0.10200
C1082       C  0.47726572  0.64369519  0.46496408    -0.15800
C1083       C  0.47629607  0.66797092  0.47572348     0.03100
C1084       C  0.99986309  0.68341069  0.47723822    -0.11100
C1085       C  0.02339740  0.67526810  0.46664486    -0.01100
C1086       C  0.02422667  0.65122823  0.45563344    -0.06300
H1087       H  0.45920746  0.63167811  0.46418398     0.06200
H1088       H  0.04129419  0.68753616  0.46711813     0.09500
Br1089     Br  0.03919152  0.58665496  0.47514439    -0.06000
Br1090     Br  0.46446788  0.58023086  0.39412617    -0.02900
Br1091     Br  0.44185526  0.68015725  0.48690199    -0.00100
Br1092     Br  0.05679336  0.64193115  0.44104618    -0.04500
C1093       C  0.50385721  0.78489148  0.48043273    -0.11900
C1094       C  0.48006496  0.80080006  0.47487523     0.03600
C1095       C  0.48246564  0.82557281  0.46483409    -0.12400
C1096       C  0.50839559  0.83488583  0.46013044     0.18500
C1097       C  0.03218078  0.81918357  0.46589346    -0.09500
C1098       C  0.02979087  0.79435077  0.47587996    -0.02400
H1099       H  0.46402031  0.83730967  0.46024686     0.05000
C1100       C  0.51002903  0.85950844  0.44757174     0.20400
H1101       H  0.04822569  0.78227731  0.48001297     0.10200
C1102       C  0.51406490  0.88531328  0.45573634    -0.15800
C1103       C  0.51411796  0.90896288  0.44398720     0.03100
C1104       C  0.50980009  0.90695897  0.42368264    -0.11100
C1105       C  0.00695740  0.88080310  0.41563279    -0.01100
C1106       C  0.00696605  0.85737092  0.42732184    -0.06300
H1107       H  0.51695154  0.88707654  0.47130080     0.06200
H1108       H  0.00372279  0.87853206  0.40013689     0.09500
Br1109     Br  0.06823622  0.83051883  0.45983088    -0.06000
Br1110     Br  0.44389196  0.78899938  0.47996189    -0.02900
Br1111     Br  0.52111399  0.94303723  0.45639379    -0.00100
Br1112     Br  0.00219046  0.82277393  0.41497813    -0.04500
C1113       C  0.20190936  0.99412569  0.47906618    -0.11900
C1114       C  0.19786072  0.51161898  0.46290331     0.03600
C1115       C  0.17401397  0.51055196  0.45153475    -0.12400
C1116       C  0.15326460  0.99250371  0.45609102     0.18500
C1117       C  0.15709555  0.97528130  0.47249351    -0.09500
C1118       C  0.18139558  0.97592834  0.48364298    -0.02400
H1119       H  0.17138034  0.52403692  0.43904740     0.05000
C1120       C  0.12811807  0.99276365  0.44358877     0.20400
H1121       H  0.18431274  0.96200017  0.49584004     0.10200
C1122       C  0.12196807  0.96937338  0.43284888    -0.15800
C1123       C  0.09992158  0.97015369  0.41948523     0.03100
C1124       C  0.08425074  0.99484640  0.41626222    -0.11100
C1125       C  0.09013520  0.51816344  0.42733991    -0.01100
C1126       C  0.11147225  0.51718765  0.44111489    -0.06300
H1127       H  0.13464972  0.95063639  0.43459739     0.06200
H1128       H  0.07741313  0.53689257  0.42560931     0.09500
Br1129     Br  0.12935860  0.95138933  0.48069355    -0.06000
Br1130     Br  0.22316353  0.53888009  0.45598479    -0.02900
Br1131     Br  0.09286959  0.93753937  0.40525208    -0.00100
Br1132     Br  0.11607467  0.54910760  0.45675335    -0.04500
C1133       C  0.41904470  0.97649480  0.41491690    -0.11900
C1134       C  0.41383212  0.95635991  0.42901771     0.03600
C1135       C  0.39032706  0.95914709  0.44037739    -0.12400
C1136       C  0.37135369  0.98140874  0.43783613     0.18500
C1137       C  0.37663666  0.50081102  0.42397196    -0.09500
C1138       C  0.40051334  0.49847781  0.41274615    -0.02400
H1139       H  0.38694367  0.94392412  0.45147958     0.05000
C1140       C  0.34721740  0.98350805  0.45072200     0.20400
H1141       H  0.40409957  0.51400893  0.40191084     0.10200
C1142       C  0.34436049  0.50509495  0.46364479    -0.15800
C1143       C  0.32224104  0.50727154  0.47644885     0.03100
C1144       C  0.30354158  0.98674272  0.47736147    -0.11100
C1145       C  0.30677945  0.96440462  0.46466610    -0.01100
C1146       C  0.32823012  0.96272975  0.45133323    -0.06300
H1147       H  0.35882568  0.52120107  0.46328075     0.06200
H1148       H  0.29214913  0.94843364  0.46487929     0.09500
Br1149     Br  0.35086272  0.53114022  0.41894846    -0.06000
Br1150     Br  0.43863044  0.92539174  0.43459928    -0.02900
Br1151     Br  0.31670984  0.54089113  0.49049005    -0.00100
Br1152     Br  0.32974606  0.93245265  0.43359271    -0.04500
C1153       C  0.09120449  0.99049469  0.58752379    -0.11900
C1154       C  0.09732164  0.97024517  0.57328480     0.03600
C1155       C  0.11970767  0.97288870  0.56099513    -0.12400
C1156       C  0.13685545  0.99489712  0.56272783     0.18500
C1157       C  0.13140738  0.51470443  0.57709178    -0.09500
C1158       C  0.10876353  0.51249843  0.58927179    -0.02400
H1159       H  0.12386873  0.95752999  0.54993707     0.05000
C1160       C  0.16084271  0.99588851  0.54973497     0.20400
H1161       H  0.10467673  0.52830124  0.60001472     0.10200
C1162       C  0.16284573  0.51729523  0.53646305    -0.15800
C1163       C  0.18501726  0.51791470  0.52361228     0.03100
C1164       C  0.20500542  0.99638844  0.52352936    -0.11100
C1165       C  0.20294634  0.97478206  0.53682509    -0.01100
C1166       C  0.18142021  0.97455478  0.54999059    -0.06300
H1167       H  0.14717209  0.53386429  0.53618432     0.06200
H1168       H  0.21854088  0.95812513  0.53717100     0.09500
Br1169     Br  0.15432482  0.54504856  0.58086742    -0.06000
Br1170     Br  0.07605600  0.93881369  0.56886805    -0.02900
Br1171     Br  0.18777707  0.54972762  0.50748785    -0.00100
Br1172     Br  0.18195460  0.94523734  0.56867307    -0.04500
C1173       C  0.30619340  0.98682090  0.52166312    -0.11900
C1174       C  0.32167848  0.96155754  0.52243826     0.03600
C1175       C  0.34500765  0.95849227  0.53458332    -0.12400
C1176       C  0.35285969  0.98006767  0.54647351     0.18500
C1177       C  0.33709349  0.00501738  0.54605517    -0.09500
C1178       C  0.31390893  0.50780863  0.53396854    -0.02400
H1179       H  0.35667153  0.93900000  0.53512589     0.05000
C1180       C  0.37725559  0.97630947  0.55950339     0.20400
H1181       H  0.30157237  0.52691238  0.53412559     0.10200
C1182       C  0.40252716  0.48601490  0.55370007    -0.15800
C1183       C  0.42577631  0.48402943  0.56590657     0.03100
C1184       C  0.42405041  0.97203135  0.58452746    -0.11100
C1185       C  0.39866726  0.96222154  0.59032585    -0.01100
C1186       C  0.37545072  0.96438686  0.57805678    -0.06300
H1187       H  0.40406182  0.49521888  0.53942429     0.06200
H1188       H  0.39674437  0.95297777  0.60454566     0.09500
Br1189     Br  0.34548739  0.53464724  0.56284149    -0.06000
Br1190     Br  0.31022416  0.92980856  0.50890054    -0.02900
Br1191     Br  0.45904490  0.49687037  0.55522031    -0.00100
Br1192     Br  0.34144573  0.95141310  0.58734756    -0.04500
C1193       C  0.00035573  0.55816038  0.57867602    -0.11900
C1194       C  0.49545035  0.58486890  0.58648344     0.03600
C1195       C  0.49458001  0.60786858  0.57424497    -0.12400
C1196       C  0.99754386  0.60528620  0.55410553     0.18500
C1197       C  0.00143021  0.57882618  0.54620027    -0.09500
C1198       C  0.00328018  0.55570701  0.55842044    -0.02400
H1199       H  0.49166557  0.62809256  0.58054226     0.05000
C1200       C  0.99737019  0.63058430  0.54188279     0.20400
H1201       H  0.00690139  0.53568394  0.55197126     0.10200
C1202       C  0.02146584  0.63728201  0.53222927    -0.15800
C1203       C  0.02268425  0.66196942  0.52183898     0.03100
C1204       C  0.49942260  0.68040840  0.52073354    -0.11100
C1205       C  0.47552046  0.67393182  0.53066745    -0.01100
C1206       C  0.47426458  0.64925261  0.54101473    -0.06300
H1207       H  0.03965735  0.62359517  0.53324853     0.06200
H1208       H  0.45765972  0.68810405  0.53026455     0.09500
Br1209     Br  0.00286854  0.57309577  0.51874741    -0.06000
Br1210     Br  0.49031904  0.59246457  0.61364569    -0.02900
Br1211     Br  0.05726523  0.67059957  0.51085598    -0.00100
Br1212     Br  0.44026619  0.64171204  0.55335871    -0.04500
C1213       C  0.50270650  0.78204680  0.52325902    -0.11900
C1214       C  0.47943570  0.79361084  0.53281661     0.03600
C1215       C  0.48124212  0.81827977  0.54288652    -0.12400
C1216       C  0.50614493  0.83144200  0.54385745     0.18500
C1217       C  0.02964301  0.81937821  0.53489548    -0.09500
C1218       C  0.02776002  0.79489502  0.52463597    -0.02400
H1219       H  0.46316066  0.82729297  0.54995465     0.05000
C1220       C  0.50712725  0.85777085  0.55424030     0.20400
H1221       H  0.04586655  0.78590969  0.51759490     0.10200
C1222       C  0.51917762  0.85833526  0.57280146    -0.15800
C1223       C  0.51966259  0.88282038  0.58326748     0.03100
C1224       C  0.50816491  0.90738781  0.57500260    -0.11100
C1225       C  0.49657268  0.90677104  0.55623933    -0.01100
C1226       C  0.49573690  0.88220545  0.54594849    -0.06300
H1227       H  0.52807414  0.83957984  0.57921206     0.06200
H1228       H  0.48743520  0.92536750  0.54974282     0.09500
Br1229     Br  0.06448879  0.83594234  0.53591265    -0.06000
Br1230     Br  0.44478293  0.77665312  0.53240320    -0.02900
Br1231     Br  0.53729049  0.88143742  0.60834133    -0.00100
Br1232     Br  0.97873927  0.88289661  0.52065365    -0.04500
C1233       C  0.05501331  0.73530431  0.22810998    -0.11900
C1234       C  0.07669741  0.74412214  0.23993160     0.03600
C1235       C  0.10205157  0.74916304  0.23164381    -0.12400
C1236       C  0.10653967  0.74419837  0.21188874     0.18500
C1237       C  0.08579405  0.73285923  0.20054237    -0.09500
C1238       C  0.06015271  0.72871054  0.20867032    -0.02400
H1239       H  0.11838531  0.75667857  0.24064340     0.05000
C1240       C  0.13326584  0.74982051  0.20332388     0.20400
H1241       H  0.04459875  0.71934015  0.20000290     0.10200
C1242       C  0.15600030  0.73183540  0.20714042    -0.15800
C1243       C  0.18017432  0.73341689  0.19646545     0.03100
C1244       C  0.18164505  0.75341377  0.18159990    -0.11100
C1245       C  0.15956912  0.77291115  0.17912294    -0.01100
C1246       C  0.13554742  0.77129221  0.18990814    -0.06300
H1247       H  0.15433236  0.71545280  0.21766201     0.06200
H1248       H  0.16047008  0.78872392  0.16809347     0.09500
Br1249     Br  0.09226261  0.72110958  0.17430693    -0.06000
Br1250     Br  0.07313892  0.74859798  0.26755078    -0.02900
Br1251     Br  0.20870259  0.70559366  0.20163965    -0.00100
Br1252     Br  0.10573625  0.79786484  0.18520891    -0.04500
C1253       C  0.45524674  0.74126187  0.21866149    -0.11900
C1254       C  0.46027452  0.75035860  0.19950138     0.03600
C1255       C  0.43822447  0.75788876  0.18695560    -0.12400
C1256       C  0.41092675  0.75683965  0.19305250     0.18500
C1257       C  0.40576161  0.74810572  0.21213384    -0.09500
C1258       C  0.42772077  0.74051448  0.22470370    -0.02400
H1259       H  0.44238441  0.76405821  0.17216816     0.05000
C1260       C  0.38806528  0.76213838  0.17884879     0.20400
H1261       H  0.42319584  0.73390881  0.23932660     0.10200
C1262       C  0.38221509  0.74155503  0.16556203    -0.15800
C1263       C  0.35866173  0.74386296  0.15372061     0.03100
C1264       C  0.34015166  0.76707400  0.15518384    -0.11100
C1265       C  0.34728803  0.78871741  0.16733456    -0.01100
C1266       C  0.37108182  0.78639612  0.17908330    -0.06300
H1267       H  0.39555749  0.72314748  0.16487891     0.06200
H1268       H  0.33360007  0.80681112  0.16853578     0.09500
Br1269     Br  0.36894066  0.74506379  0.22134722    -0.06000
Br1270     Br  0.49631210  0.75104790  0.18872074    -0.02900
Br1271     Br  0.35294630  0.71445350  0.13590368    -0.00100
Br1272     Br  0.37921442  0.81638087  0.19568030    -0.04500
C1273       C  0.24860471  0.67588788  0.08838308    -0.11900
C1274       C  0.26953062  0.67139913  0.07433796     0.03600
C1275       C  0.26872871  0.64898989  0.06175883    -0.12400
C1276       C  0.24785994  0.63042575  0.06304099     0.18500
C1277       C  0.22827984  0.63363042  0.07786627    -0.09500
C1278       C  0.22841120  0.65645439  0.09002136    -0.02400
H1279       H  0.28431792  0.64620727  0.05068721     0.05000
C1280       C  0.24724601  0.60751363  0.04907284     0.20400
H1281       H  0.21235526  0.65911662  0.10069578     0.10200
C1282       C  0.26848039  0.58704804  0.04966403    -0.15800
C1283       C  0.26801580  0.56443214  0.03732787     0.03100
C1284       C  0.24583315  0.56184835  0.02419118    -0.11100
C1285       C  0.22513172  0.58291391  0.02305212    -0.01100
C1286       C  0.22591271  0.60583306  0.03517708    -0.06300
H1287       H  0.28533759  0.58852950  0.05993961     0.06200
H1288       H  0.20817821  0.58136953  0.01287119     0.09500
Br1289     Br  0.20153716  0.60690556  0.08249841    -0.06000
Br1290     Br  0.29933359  0.69504810  0.07062370    -0.02900
Br1291     Br  0.29855198  0.53794150  0.03872164    -0.00100
Br1292     Br  0.19789176  0.63465082  0.03191908    -0.04500
C1293       C  0.24870541  0.84547145  0.08805847    -0.11900
C1294       C  0.23955158  0.84349633  0.06853113     0.03600
C1295       C  0.23526310  0.86716103  0.05715792    -0.12400
C1296       C  0.24005751  0.89300705  0.06473288     0.18500
C1297       C  0.24810060  0.89526096  0.08432439    -0.09500
C1298       C  0.25240609  0.87164445  0.09579420    -0.07200
H1299       H  0.22939741  0.86528844  0.04200586     0.05000
C1300       C  0.23982599  0.91677382  0.05134602     0.20400
H1301       H  0.25919864  0.87374842  0.11072841     0.10200
C1302       C  0.21528579  0.93230393  0.04755282    -0.15800
C1303       C  0.21498642  0.95489718  0.03489152     0.03100
C1304       C  0.23933946  0.96171066  0.02545704    -0.11100
C1305       C  0.26378676  0.94609703  0.02928526    -0.01100
C1306       C  0.26417715  0.92382610  0.04211663    -0.06300
H1307       H  0.19648624  0.92709842  0.05467506     0.06200
H1308       H  0.28280984  0.95171854  0.02267798     0.09500
Br1309     Br  0.25454893  0.93012550  0.09568756    -0.06000
Br1310     Br  0.23530137  0.80932984  0.05557576    -0.02900
Br1311     Br  0.18117484  0.97638290  0.03134476    -0.00100
Br1312     Br  0.29859425  0.90395694  0.04708072    -0.04500
C1313       C  0.24282126  0.56169794  0.97982133    -0.11900
C1314       C  0.22277844  0.56686002  0.96509187     0.03600
C1315       C  0.22429087  0.58952977  0.95277741    -0.12400
C1316       C  0.24464418  0.60857267  0.95527385     0.18500
C1317       C  0.26361477  0.60452049  0.97084578    -0.09500
C1318       C  0.26315052  0.58082735  0.98248201    -0.02400
H1319       H  0.20890183  0.59270009  0.94139636     0.05000
C1320       C  0.24362223  0.63341917  0.94245525     0.20400
H1321       H  0.27852148  0.57758690  0.99385238     0.10200
C1322       C  0.21852893  0.64881815  0.94060686    -0.15800
C1323       C  0.21548657  0.67106080  0.92780379     0.03100
C1324       C  0.23823300  0.67963302  0.91728056    -0.11100
C1325       C  0.26344676  0.66442501  0.91902149    -0.01100
C1326       C  0.26597487  0.64085079  0.93087669    -0.06300
H1327       H  0.20088186  0.64311047  0.94890255     0.06200
H1328       H  0.28080996  0.67012623  0.91043029     0.09500
Br1329     Br  0.28880688  0.63170655  0.97809806    -0.06000
Br1330     Br  0.19141200  0.54503254  0.96194748    -0.02900
Br1331     Br  0.17952026  0.68873618  0.92516595    -0.00100
Br1332     Br  0.29909013  0.61794402  0.92888280    -0.04500
C1333       C  0.24887367  0.84669567  0.91644934    -0.11900
C1334       C  0.26127241  0.87155302  0.91256279     0.03600
C1335       C  0.25944216  0.89298703  0.92603979    -0.12400
C1336       C  0.24532183  0.89026240  0.94356157     0.18500
C1337       C  0.23215118  0.86582185  0.94724864    -0.09500
C1338       C  0.23396437  0.84436739  0.93376043    -0.02400
H1339       H  0.26904738  0.91196812  0.92281829     0.05000
C1340       C  0.24413828  0.91342613  0.95750172     0.20400
H1341       H  0.22444926  0.82539535  0.93715454     0.10200
C1342       C  0.21930718  0.92893371  0.95986800    -0.15800
C1343       C  0.21794668  0.95206178  0.97186555     0.03100
C1344       C  0.24165454  0.95999136  0.98182910    -0.11100
C1345       C  0.26639976  0.94427868  0.97967829    -0.01100
C1346       C  0.26777607  0.92113613  0.96768562    -0.06300
H1347       H  0.20105051  0.92334234  0.95201932     0.06200
H1348       H  0.28488827  0.95043622  0.98696143     0.09500
Br1349     Br  0.21260476  0.86034027  0.97091174    -0.06000
Br1350     Br  0.27950807  0.87812966  0.88869092    -0.02900
Br1351     Br  0.18342248  0.97252741  0.97383970    -0.00100
Br1352     Br  0.30238896  0.90074791  0.96560095    -0.04500
C1353       C  0.01046388  0.55370781  0.67814702    -0.11900
C1354       C  0.02401965  0.57749075  0.67310116     0.03600
C1355       C  0.02173109  0.60040522  0.68493754    -0.12400
C1356       C  0.00599350  0.60019474  0.70177936     0.18500
C1357       C  0.49245268  0.57653415  0.70699558    -0.09500
C1358       C  0.49494118  0.55323505  0.69519614    -0.02400
H1359       H  0.03223781  0.61859887  0.68096872     0.05000
C1360       C  0.00426326  0.62527712  0.71341081     0.20400
H1361       H  0.48428943  0.53508934  0.69903930     0.10200
C1362       C  0.48288427  0.64478524  0.70970086    -0.15800
C1363       C  0.48260819  0.67052947  0.71843920     0.03100
C1364       C  0.00409985  0.67716726  0.73150971    -0.11100
C1365       C  0.02548564  0.65700764  0.73506890    -0.01100
C1366       C  0.02575264  0.63150595  0.72603061    -0.06300
H1367       H  0.46669974  0.64019861  0.69947558     0.06200
H1368       H  0.04252043  0.66043230  0.74462901     0.09500
Br1369     Br  0.47032793  0.57549270  0.72985697    -0.06000
Br1370     Br  0.04651389  0.57991757  0.65043848    -0.02900
Br1371     Br  0.45230585  0.69551977  0.71121984    -0.00100
Br1372     Br  0.05641765  0.60592638  0.73081422    -0.04500
C1373       C  0.50030664  0.77943368  0.72358425    -0.11900
C1374       C  0.47598351  0.79098053  0.71504640     0.03600
C1375       C  0.47709095  0.81355492  0.70254261    -0.12400
C1376       C  0.50241189  0.82390822  0.69730202     0.18500
C1377       C  0.02687983  0.81165246  0.70550115    -0.09500
C1378       C  0.02556986  0.78991735  0.71871838    -0.02400
H1379       H  0.45807242  0.82282826  0.69668704     0.05000
C1380       C  0.50284717  0.84818907  0.68412485     0.20400
H1381       H  0.04445618  0.78046209  0.72469050     0.10200
C1382       C  0.01639309  0.87119936  0.69046510    -0.15800
C1383       C  0.01786758  0.89442272  0.67873421     0.03100
C1384       C  0.50458637  0.89557526  0.66038866    -0.11100
C1385       C  0.49012494  0.87304611  0.65421752    -0.01100
C1386       C  0.48948310  0.84930767  0.66574222    -0.06300
H1387       H  0.02588433  0.87116500  0.70477491     0.06200
H1388       H  0.47974694  0.87371280  0.64020312     0.09500
Br1389     Br  0.06284338  0.82231788  0.69828000    -0.06000
Br1390     Br  0.44102567  0.77561961  0.71900240    -0.02900
Br1391     Br  0.03707093  0.92446418  0.68926919    -0.00100
Br1392     Br  0.47104930  0.81883968  0.65519093    -0.04500
C1393       C  0.16270870  0.75752410  0.84135441    -0.11900
C1394       C  0.14502050  0.73542687  0.84214917     0.03600
C1395       C  0.12166180  0.73534722  0.82998595    -0.12400
C1396       C  0.11544388  0.75677919  0.81677734     0.18500
C1397       C  0.13247069  0.77913119  0.81631249    -0.09500
C1398       C  0.15562850  0.77946045  0.82855592    -0.02400
H1399       H  0.10860631  0.71807744  0.83048392     0.05000
C1400       C  0.09219880  0.75451722  0.80279072     0.20400
H1401       H  0.16865697  0.79669722  0.82754147     0.10200
C1402       C  0.06493535  0.75936196  0.80895111    -0.15800
C1403       C  0.04260784  0.75512478  0.79637830     0.03100
C1404       C  0.04743327  0.74572678  0.77726272    -0.11100
C1405       C  0.07481815  0.74189581  0.77100696    -0.01100
C1406       C  0.09700028  0.74605341  0.78353816    -0.06300
H1407       H  0.06101274  0.76578059  0.82376879     0.06200
H1408       H  0.07901175  0.73471797  0.75639291     0.09500
Br1409     Br  0.12528265  0.80931116  0.79875038    -0.06000
Br1410     Br  0.15120131  0.70470341  0.85939717    -0.02900
Br1411     Br  0.00625547  0.76019277  0.80669586    -0.00100
Br1412     Br  0.13354193  0.73823102  0.77406307    -0.04500
C1413       C  0.45051683  0.74265670  0.77449754    -0.11900
C1414       C  0.44070875  0.72445035  0.78854287     0.03600
C1415       C  0.41569239  0.73056023  0.79775600    -0.12400
C1416       C  0.39996873  0.75464275  0.79337635     0.18500
C1417       C  0.41018054  0.77343887  0.78002848    -0.09500
C1418       C  0.43546439  0.76749700  0.77088736    -0.02400
H1419       H  0.40850103  0.71648536  0.80855410     0.05000
C1420       C  0.37433891  0.76045636  0.80440636     0.20400
H1421       H  0.44303279  0.78205016  0.76063121     0.10200
C1422       C  0.37673483  0.76787648  0.82391799    -0.15800
C1423       C  0.35364382  0.77066893  0.83576979     0.03100
C1424       C  0.32717321  0.76586405  0.82813622    -0.11100
C1425       C  0.32466414  0.75926041  0.80834591    -0.01100
C1426       C  0.34805470  0.75624984  0.79653722    -0.06300
H1427       H  0.39688417  0.77115095  0.83005897     0.06200
H1428       H  0.30461379  0.75560656  0.80220783     0.09500
Br1429     Br  0.39036927  0.80737367  0.77394373    -0.06000
Br1430     Br  0.46128094  0.69173880  0.79680365    -0.02900
Br1431     Br  0.36007471  0.78211898  0.86207669    -0.00100
Br1432     Br  0.34345411  0.74497888  0.77010326    -0.04500
C1433       C  0.31766656  0.00728755  0.72720298    -0.11900
C1434       C  0.31639110  0.99790388  0.70785648     0.03600
C1435       C  0.34079442  0.99251823  0.69750877    -0.12400
C1436       C  0.36659297  0.99611617  0.70615279     0.18500
C1437       C  0.36809269  0.50504484  0.72557487    -0.09500
C1438       C  0.34386292  0.51021803  0.73594046    -0.02400
H1439       H  0.33964995  0.98606225  0.68248506     0.05000
C1440       C  0.39179725  0.99247543  0.69436291     0.20400
H1441       H  0.34534694  0.51704563  0.75086235     0.10200
C1442       C  0.39812290  0.51334999  0.68091045    -0.15800
C1443       C  0.42179183  0.51065829  0.66949763     0.03100
C1444       C  0.43942229  0.98672471  0.67126718    -0.11100
C1445       C  0.43381128  0.96681347  0.68529501    -0.01100
C1446       C  0.41016026  0.96946236  0.69671508    -0.06300
H1447       H  0.38454328  0.53152288  0.67940671     0.06200
H1448       H  0.44744374  0.94870248  0.68699163     0.09500
Br1449     Br  0.40246712  0.51130401  0.73827730    -0.06000
Br1450     Br  0.28230159  0.99403577  0.69424890    -0.02900
Br1451     Br  0.42944214  0.54035207  0.65237497    -0.00100
Br1452     Br  0.40324075  0.94074748  0.71484755    -0.04500
C1453       C  0.22050144  0.01487210  0.72242510    -0.11900
C1454       C  0.21571516  0.53218337  0.70589457     0.03600
C1455       C  0.19325241  0.52800589  0.69353643    -0.12400
C1456       C  0.17469100  0.00711817  0.69751678     0.18500
C1457       C  0.17999297  0.98979807  0.71376729    -0.09500
C1458       C  0.20292528  0.99354149  0.72587706    -0.02400
H1459       H  0.18975632  0.54124450  0.68099036     0.05000
C1460       C  0.14984083  0.00463863  0.68480810     0.20400
H1461       H  0.20634437  0.98050620  0.73854262     0.10200
C1462       C  0.14655118  0.98067845  0.67395243    -0.15800
C1463       C  0.12294158  0.97748128  0.66237491     0.03100
C1464       C  0.10215450  0.49894626  0.66135692    -0.11100
C1465       C  0.10590944  0.52317020  0.67185074    -0.01100
C1466       C  0.12935067  0.52628685  0.68345780    -0.06300
H1467       H  0.16241049  0.96428482  0.67457032     0.06200
H1468       H  0.08998643  0.53949983  0.67167258     0.09500
Br1469     Br  0.15528116  0.96223746  0.72094639    -0.06000
Br1470     Br  0.23906123  0.56139055  0.69966950    -0.02900
Br1471     Br  0.12101921  0.94418634  0.64785301    -0.00100
Br1472     Br  0.13117078  0.55941890  0.69821995    -0.04500
C1473       C  0.25823461  0.69250392  0.83317658    -0.11900
C1474       C  0.27601700  0.66995757  0.83882327     0.03600
C1475       C  0.27795768  0.64642634  0.82719142    -0.12400
C1476       C  0.26275302  0.64498627  0.80982156     0.18500
C1477       C  0.24568651  0.66764743  0.80393734    -0.09500
C1478       C  0.24354056  0.69100274  0.81553071    -0.02400
H1479       H  0.29139510  0.62914103  0.83170539     0.05000
C1480       C  0.26462854  0.61977405  0.79794623     0.20400
H1481       H  0.22977624  0.70791436  0.81080102     0.10200
C1482       C  0.24174323  0.60371025  0.79641703    -0.15800
C1483       C  0.24221643  0.58039962  0.78464679     0.03100
C1484       C  0.26594949  0.57286802  0.77354438    -0.11100
C1485       C  0.28912573  0.58893894  0.77576103    -0.01100
C1486       C  0.28860638  0.61196814  0.78776660    -0.06300
H1487       H  0.22333697  0.60934744  0.80453977     0.06200
H1488       H  0.30839360  0.58370665  0.76875610     0.09500
Br1489     Br  0.22519502  0.66788527  0.77995812    -0.06000
Br1490     Br  0.29901813  0.67020843  0.86165554    -0.02900
Br1491     Br  0.20977516  0.55952655  0.78521864    -0.00100
Br1492     Br  0.32118892  0.63236115  0.78961686    -0.04500
C1493       C  0.26440763  0.97047899  0.77511408    -0.11900
C1494       C  0.28270704  0.94747861  0.77219225     0.03600
C1495       C  0.28161007  0.92449021  0.78439822    -0.12400
C1496       C  0.26287348  0.92408392  0.79979618     0.18500
C1497       C  0.24495579  0.94719796  0.80288051    -0.09500
C1498       C  0.24545497  0.96972440  0.79038913    -0.02400
H1499       H  0.29585579  0.90703950  0.78212998     0.05000
C1500       C  0.26298117  0.89988023  0.81290169     0.20400
H1501       H  0.23148581  0.98726261  0.79307103     0.10200
C1502       C  0.28680367  0.89221872  0.82367265    -0.15800
C1503       C  0.28763696  0.86952561  0.83626959     0.03100
C1504       C  0.26372728  0.85454124  0.83887356    -0.11100
C1505       C  0.24001535  0.86238469  0.82782910    -0.01100
C1506       C  0.23974110  0.88416406  0.81463662    -0.06300
H1507       H  0.30502341  0.90383630  0.82209331     0.06200
H1508       H  0.22168465  0.85081905  0.82877167     0.09500
Br1509     Br  0.22101197  0.95021924  0.82489599    -0.06000
Br1510     Br  0.31132559  0.94690862  0.75322112    -0.02900
Br1511     Br  0.32248723  0.86008659  0.84858749    -0.00100
Br1512     Br  0.20783451  0.89010437  0.79819218    -0.04500
C1513       C  0.17340787  0.76144000  0.07946462    -0.11900
C1514       C  0.14636546  0.75950273  0.08671950     0.03600
C1515       C  0.12378600  0.76150242  0.07397447    -0.12400
C1516       C  0.12736642  0.76520552  0.05400824     0.18500
C1517       C  0.15409433  0.76690176  0.04669095    -0.09500
C1518       C  0.17682427  0.76462536  0.05933134    -0.02400
H1519       H  0.10324295  0.75973701  0.07964003     0.05000
C1520       C  0.10280698  0.76653922  0.04116825     0.20400
H1521       H  0.19723765  0.76541112  0.05334770     0.10200
C1522       C  0.08784461  0.79162396  0.03859217    -0.15800
C1523       C  0.06291004  0.79299941  0.02822530     0.03100
C1524       C  0.05274445  0.76904470  0.02017163    -0.11100
C1525       C  0.06813656  0.74410579  0.02224887    -0.01100
C1526       C  0.09290383  0.74267705  0.03280416    -0.06300
H1527       H  0.09526550  0.81004338  0.04507013     0.06200
H1528       H  0.06037968  0.72555760  0.01619012     0.09500
Br1529     Br  0.16044973  0.77263856  0.01961302    -0.06000
Br1530     Br  0.13840400  0.75195350  0.11349268    -0.02900
Br1531     Br  0.04318934  0.82785956  0.02561671    -0.00100
Br1532     Br  0.11181088  0.70756172  0.03637410    -0.04500
C1533       C  0.32387933  0.76654290  0.07634869    -0.11900
C1534       C  0.32629927  0.76476314  0.05585224     0.03600
C1535       C  0.35216220  0.76593526  0.04725519    -0.12400
C1536       C  0.37585276  0.76899884  0.05854181     0.18500
C1537       C  0.37366543  0.77104558  0.07880756    -0.09500
C1538       C  0.34793040  0.76974833  0.08753264    -0.02400
H1539       H  0.35386101  0.76439214  0.03159697     0.05000
C1540       C  0.40269587  0.76918263  0.04878597     0.20400
H1541       H  0.34685748  0.77129031  0.10321118     0.10200
C1542       C  0.41264996  0.79411142  0.04250947    -0.15800
C1543       C  0.43692604  0.79452746  0.03177773     0.03100
C1544       C  0.45132761  0.76974121  0.02710052    -0.11100
C1545       C  0.44186905  0.74492772  0.03395476    -0.01100
C1546       C  0.41765305  0.74449837  0.04468566    -0.06300
H1547       H  0.40125758  0.81319487  0.04568228     0.06200
H1548       H  0.45306609  0.72580608  0.03060235     0.09500
Br1549     Br  0.40530678  0.77550404  0.09508978    -0.06000
Br1550     Br  0.29571341  0.76124186  0.03834791    -0.02900
Br1551     Br  0.44957001  0.82918391  0.02352567    -0.00100
Br1552     Br  0.40524232  0.70979715  0.05304707    -0.04500
C1553       C  0.04634073  0.76631602  0.97737104    -0.11900
C1554       C  0.05471165  0.74249214  0.96708147     0.03600
C1555       C  0.07804144  0.74246835  0.95532869    -0.12400
C1556       C  0.09353983  0.76580027  0.95402823     0.18500
C1557       C  0.08524729  0.78952907  0.96437690    -0.09500
C1558       C  0.06158550  0.78977250  0.97573056    -0.02400
H1559       H  0.08474201  0.72391441  0.94778615     0.05000
C1560       C  0.11989336  0.76426639  0.94358708     0.20400
H1561       H  0.05539608  0.80812052  0.98365682     0.10200
C1562       C  0.12181058  0.77642094  0.92518302    -0.15800
C1563       C  0.14708545  0.77632613  0.91555980     0.03100
C1564       C  0.17095388  0.76430376  0.92461384    -0.11100
C1565       C  0.16891681  0.75277694  0.94323615    -0.01100
C1566       C  0.14358688  0.75210440  0.95249775    -0.06300
H1567       H  0.10365065  0.78618250  0.91838974     0.06200
H1568       H  0.18697372  0.74327865  0.95034241     0.09500
Br1569     Br  0.10677105  0.82131413  0.96450403    -0.06000
Br1570     Br  0.03627719  0.70898261  0.96992118    -0.02900
Br1571     Br  0.14802921  0.79447925  0.89080704    -0.00100
Br1572     Br  0.14212790  0.73399224  0.97721245    -0.04500
C1573       C  0.44490577  0.76521989  0.98468054    -0.11900
C1574       C  0.43372197  0.73980027  0.98085353     0.03600
C1575       C  0.40843289  0.73885492  0.97108991    -0.12400
C1576       C  0.39401121  0.76302610  0.96493537     0.18500
C1577       C  0.40479858  0.78851825  0.96936332    -0.09500
C1578       C  0.43015546  0.78942349  0.97907072    -0.02400
H1579       H  0.40029120  0.71916227  0.96783545     0.05000
C1580       C  0.36888595  0.76116353  0.95274777     0.20400
H1581       H  0.43867079  0.80906091  0.98189716     0.10200
C1582       C  0.34308454  0.76982810  0.96008617    -0.15800
C1583       C  0.31922777  0.76956850  0.94845654     0.03100
C1584       C  0.32102974  0.76055756  0.92891347    -0.11100
C1585       C  0.34692619  0.75089933  0.92199917    -0.01100
C1586       C  0.37057905  0.75117091  0.93363637    -0.06300
H1587       H  0.34157765  0.77719232  0.97489233     0.06200
H1588       H  0.34910157  0.74374937  0.90718488     0.09500
Br1589     Br  0.38641837  0.82255627  0.96159268    -0.06000
Br1590     Br  0.45270985  0.70590035  0.98816032    -0.02900
Br1591     Br  0.28537144  0.78233751  0.96032055    -0.00100
Br1592     Br  0.40503018  0.73909590  0.92230608    -0.04500
C1593       C  0.28663989  0.99160330  0.28051854    -0.11900
C1594       C  0.28572967  0.50325398  0.29925098     0.03600
C1595       C  0.30737624  0.49795800  0.31259550    -0.12400
C1596       C  0.33054098  0.98213955  0.30744787     0.18500
C1597       C  0.33162566  0.97013032  0.28881655    -0.09500
C1598       C  0.30965255  0.97465627  0.27568257    -0.02400
H1599       H  0.30608152  0.50698979  0.32692662     0.05000
C1600       C  0.35453436  0.97945264  0.32112462     0.20400
H1601       H  0.31103014  0.96575145  0.26134936     0.10200
C1602       C  0.36403271  0.95350744  0.32805512    -0.15800
C1603       C  0.38842126  0.95003850  0.33916075     0.03100
C1604       C  0.40382636  0.97300298  0.34375397    -0.11100
C1605       C  0.39306829  0.49877695  0.33838946    -0.01100
C1606       C  0.36916110  0.50220105  0.32702355    -0.06300
H1607       H  0.35282001  0.93568244  0.32427448     0.06200
H1608       H  0.40366990  0.51696577  0.34220174     0.09500
Br1609     Br  0.36360067  0.94936072  0.27989550    -0.06000
Br1610     Br  0.25526819  0.52720931  0.30685228    -0.02900
Br1611     Br  0.39961961  0.91328703  0.34678056    -0.00100
Br1612     Br  0.35827033  0.53874574  0.31861466    -0.04500
C1613       C  0.19092359  0.99086925  0.27354866    -0.11900
C1614       C  0.16435599  0.49266708  0.26537557     0.03600
C1615       C  0.14154528  0.48905606  0.27714614    -0.12400
C1616       C  0.14481746  0.98384818  0.29721865     0.18500
C1617       C  0.17162026  0.98007408  0.30503290    -0.09500
C1618       C  0.19442946  0.98363516  0.29319281    -0.02400
H1619       H  0.12106132  0.49092249  0.27081439     0.05000
C1620       C  0.12011762  0.98283839  0.30951573     0.20400
H1621       H  0.21490707  0.98147396  0.29948272     0.10200
C1622       C  0.10235097  0.96142317  0.30708095    -0.15800
C1623       C  0.07816087  0.96057582  0.31788036     0.03100
C1624       C  0.07150487  0.98127645  0.33145670    -0.11100
C1625       C  0.08732538  0.50473735  0.33149719    -0.01100
C1626       C  0.11137173  0.50559924  0.32058044    -0.06300
H1627       H  0.10729618  0.94536531  0.29666893     0.06200
H1628       H  0.08076975  0.52239831  0.34009814     0.09500
Br1629     Br  0.17797285  0.96994032  0.33171626    -0.06000
Br1630     Br  0.15759707  0.49842875  0.23806797    -0.02900
Br1631     Br  0.05546515  0.93056602  0.31368431    -0.00100
Br1632     Br  0.13120702  0.53850539  0.32102334    -0.04500
C1633       C  0.24429894  0.66522067  0.16175077    -0.11900
C1634       C  0.22510754  0.64481773  0.15911277     0.03600
C1635       C  0.22661236  0.62132864  0.17089952    -0.12400
C1636       C  0.24614557  0.61822643  0.18599793     0.18500
C1637       C  0.26518632  0.63856969  0.18872042    -0.09500
C1638       C  0.26448090  0.66145225  0.17645099    -0.02400
H1639       H  0.21179971  0.60580059  0.16874341     0.05000
C1640       C  0.24515778  0.59462802  0.19953686     0.20400
H1641       H  0.27892184  0.67716145  0.17917725     0.10200
C1642       C  0.26707346  0.57490603  0.20043568    -0.15800
C1643       C  0.26670404  0.55255929  0.21326692     0.03100
C1644       C  0.24377797  0.54929130  0.22563104    -0.11100
C1645       C  0.22205830  0.56966705  0.22459795    -0.01100
C1646       C  0.22259826  0.59189167  0.21182259    -0.06300
H1647       H  0.28462161  0.57691492  0.19104324     0.06200
H1648       H  0.20414846  0.56912548  0.23361710     0.09500
Br1649     Br  0.29081370  0.63740576  0.21011622    -0.06000
Br1650     Br  0.19606304  0.64780741  0.14010211    -0.02900
Br1651     Br  0.29837012  0.52734557  0.21278276    -0.00100
Br1652     Br  0.19219788  0.61862060  0.21220965    -0.04500
C1653       C  0.23963300  0.82651919  0.17307370    -0.11900
C1654       C  0.23896197  0.82360908  0.19353545     0.03600
C1655       C  0.23698051  0.84694317  0.20527627    -0.12400
C1656       C  0.23544148  0.87318225  0.19698186     0.18500
C1657       C  0.23426118  0.87611689  0.17667554    -0.09500
C1658       C  0.23619048  0.85293143  0.16490799    -0.02400
H1659       H  0.23751916  0.84465202  0.22094406     0.05000
C1660       C  0.23782891  0.89732366  0.20948894     0.20400
H1661       H  0.23638808  0.85576114  0.14928593     0.10200
C1662       C  0.26328932  0.90937547  0.21061575    -0.15800
C1663       C  0.26601161  0.93380982  0.22070040     0.03100
C1664       C  0.24313454  0.94620119  0.23018763    -0.11100
C1665       C  0.21790554  0.93355555  0.22975150    -0.01100
C1666       C  0.21504521  0.90934758  0.21928595    -0.06300
H1667       H  0.28089265  0.90015737  0.20307514     0.06200
H1668       H  0.20011145  0.94320958  0.23680984     0.09500
Br1669     Br  0.23129617  0.91151792  0.16442142    -0.06000
Br1670     Br  0.24056890  0.78865980  0.20646248    -0.02900
Br1671     Br  0.30113421  0.94977012  0.22065891    -0.00100
Br1672     Br  0.17942962  0.89447425  0.21750954    -0.04500
C1673       C  0.74201188  0.02365894  0.23894020     0.86600
C1674       C  0.74420582  0.99666731  0.22750719    -0.53700
C1675       C  0.74454550  0.47405562  0.23886781     0.09500
C1676       C  0.74195728  0.47970458  0.26070528     0.20500
C1677       C  0.71563137  0.02110533  0.25110257    -0.54400
C1678       C  0.71553799  0.49816636  0.26215194     0.09600
C1679       C  0.76535611  0.02118949  0.25420046    -0.53900
C1680       C  0.76557976  0.49841831  0.26558979     0.10200
H1681       H  0.74504720  0.49626097  0.21185635     0.14700
H1682       H  0.74185879  0.46082014  0.26973629     0.00400
H1683       H  0.69821706  0.03572434  0.25140776     0.15000
H1684       H  0.78079641  0.03629028  0.25584033     0.14800
C1685       C  0.97261029  0.26832269  0.99378974     0.02400
C1686       C  0.97559703  0.27028390  0.01414115     0.02300
C1687       C  0.50195351  0.27129368  0.02242496    -0.18200
C1688       C  0.52546761  0.27040933  0.01072411     0.02400
C1689       C  0.52248193  0.26852882  0.99033849     0.02300
C1690       C  0.49606268  0.26764929  0.98207314    -0.18200
H1691       H  0.49375136  0.26624437  0.96642082     0.04400
H1692       H  0.50420841  0.27239817  0.03809495     0.04400
C1693       C  0.76703684  0.04653951  0.76112276     0.86600
C1694       C  0.79246915  0.04096605  0.74825172    -0.53700
C1695       C  0.79307949  0.51688277  0.73845609     0.09500
C1696       C  0.76727220  0.50039118  0.74191443     0.20500
C1697       C  0.74285260  0.04458099  0.74673825    -0.54400
C1698       C  0.74282306  0.52068723  0.73666999     0.09600
C1699       C  0.76624682  0.52120997  0.77395453    -0.53900
C1700       C  0.76618359  0.49696461  0.76421038     0.10200
H1701       H  0.80902794  0.05468478  0.74649774     0.14700
H1702       H  0.76703036  0.48072309  0.73394558     0.00400
H1703       H  0.72714140  0.06095938  0.74460294     0.15000
H1704       H  0.76579772  0.52232474  0.78972251     0.14800
C1705       C  0.50361290  0.20515610  0.74148557     0.86600
C1706       C  0.50326021  0.22915948  0.72707623    -0.53700
C1707       C  0.50040758  0.25430139  0.73548078     0.09500
C1708       C  0.49896479  0.25351708  0.75787916     0.20500
C1709       C  0.52736654  0.21113485  0.75566752    -0.54400
C1710       C  0.52515824  0.23637656  0.76419374     0.09600
C1711       C  0.97767076  0.20994743  0.75366405    -0.53900
C1712       C  0.97505018  0.23492591  0.76240059     0.10200
H1713       H  0.50522134  0.22651994  0.71147089     0.14700
H1714       H  0.99697443  0.27414885  0.76457259     0.00400
H1715       H  0.54492543  0.19738025  0.75891087     0.15000
H1716       H  0.96222771  0.19479760  0.75492660     0.14800
C1717       C  0.74141816  0.48595246  0.99283104     0.02400
C1718       C  0.74037640  0.48657663  0.01331923     0.02300
C1719       C  0.74161298  0.01201401  0.02285992    -0.18200
C1720       C  0.74386929  0.03665491  0.01250942     0.02400
C1721       C  0.74350639  0.03622898  0.99187614     0.02300
C1722       C  0.74316839  0.01067751  0.98245379    -0.18200
H1723       H  0.74412469  0.00992050  0.96673408     0.04400
H1724       H  0.74112455  0.01242324  0.03860914     0.04400
O1725       O  0.73311490  0.30675419  0.90120774    -0.80000
O1726       O  0.70197637  0.27946525  0.85329033    -0.80100
O1727       O  0.78465041  0.31776461  0.85809884    -0.80100
O1728       O  0.69999732  0.25782736  0.89637999    -0.80000
O1729       O  0.74056387  0.31727629  0.85185021    -0.80100
O1730       O  0.72004937  0.26431436  0.92478611    -0.80100
O1731       O  0.70126048  0.23621975  0.85962760    -0.80000
O1732       O  0.77712353  0.31499954  0.89764724    -0.80100
C1733       C  0.75298299  0.32224008  0.90362797     1.09600
C1734       C  0.68947524  0.25760411  0.85234922     1.09500
C1735       C  0.76285796  0.32912578  0.85069535     1.09700
C1736       C  0.69822499  0.26226411  0.91487108     1.09500
O1737       O  0.75114363  0.22469231  0.90653556    -0.80000
O1738       O  0.77956963  0.27808558  0.83418192    -0.80100
O1739       O  0.80203859  0.25823110  0.89693302    -0.80100
O1740       O  0.75691547  0.21567492  0.86372839    -0.80000
O1741       O  0.74241120  0.23860281  0.83754849    -0.80100
O1742       O  0.77406120  0.27227580  0.91917286    -0.80100
O1743       O  0.71789206  0.20481754  0.89089053    -0.80000
O1744       O  0.80542195  0.26130840  0.85810512    -0.80100
Co1745     Co  0.74123394  0.26678979  0.90193360     1.51500
Co1746     Co  0.74129442  0.27810114  0.84606873     1.51700
Co1747     Co  0.79032964  0.28665937  0.87767673     1.51600
Co1748     Co  0.73109669  0.23751883  0.88014317     1.51500
O1749       O  0.75330313  0.27000590  0.87403613    -1.42000
C1750       C  0.73590682  0.20394610  0.90427951     1.09600
C1751       C  0.80260275  0.26785591  0.84048585     1.09700
C1752       C  0.79785188  0.26331634  0.91456317     1.09600
C1753       C  0.75331111  0.21693187  0.84547847     1.09600
O1754       O  0.79832637  0.28853857  0.14227714    -0.80000
O1755       O  0.72184009  0.20838808  0.10715026    -0.80100
O1756       O  0.76438969  0.20442278  0.14951331    -0.80100
O1757       O  0.77527069  0.26012493  0.07798926    -0.80000
O1758       O  0.71953270  0.20314084  0.14645177    -0.80100
O1759       O  0.79636056  0.27075337  0.10516607    -0.80100
O1760       O  0.76538210  0.21687389  0.10211986    -0.80000
O1761       O  0.80047120  0.24447372  0.14582931    -0.80100
C1762       C  0.81217919  0.26672270  0.14684054     1.09600
C1763       C  0.74553896  0.20126543  0.10031564     1.09500
C1764       C  0.74267217  0.19167201  0.15133278     1.09700
C1765       C  0.79722753  0.26585198  0.08669915     1.09500
O1766       O  0.77494910  0.32166524  0.11345716    -0.80000
O1767       O  0.69707897  0.25883505  0.14968532    -0.80100
O1768       O  0.76121392  0.28238592  0.16636297    -0.80100
O1769       O  0.72154834  0.25098351  0.08635467    -0.80000
O1770       O  0.69596092  0.26412667  0.11039672    -0.80100
O1771       O  0.74064150  0.30551212  0.14226244    -0.80100
O1772       O  0.74427730  0.29817928  0.09772306    -0.80000
O1773       O  0.72732044  0.24113730  0.17073336    -0.80100
Co1774     Co  0.76582076  0.28723570  0.12372313     1.51500
Co1775     Co  0.71032941  0.23522488  0.12837030     1.51700
Co1776     Co  0.76312014  0.24337847  0.15639225     1.51600
Co1777     Co  0.75628572  0.25654572  0.10173621     1.51500
O1778       O  0.74696269  0.25280381  0.12989844    -1.42000
C1779       C  0.75670979  0.32069522  0.10024164     1.09600
C1780       C  0.70354596  0.25192061  0.16688527     1.09700
C1781       C  0.74675313  0.30323326  0.16014784     1.09600
C1782       C  0.69816613  0.25920198  0.09257349     1.09600
O1783       O  0.56128704  0.01709287  0.64528002    -0.80000
O1784       O  0.00211547  0.43403217  0.60441940    -0.80100
O1785       O  0.52674643  0.43326119  0.64675120    -0.80100
O1786       O  0.55214175  0.46992501  0.60108299    -0.80000
O1787       O  0.98281962  0.43188514  0.64149587    -0.80100
O1788       O  0.55640910  0.01400883  0.60609126    -0.80100
O1789       O  0.50979197  0.45587320  0.57694176    -0.80000
O1790       O  0.56469077  0.47281565  0.65041874    -0.80100
C1791       C  0.57506925  0.99567400  0.65110020     1.09600
C1792       C  0.00674226  0.43355813  0.58592417     1.09500
C1793       C  0.00491067  0.42083121  0.64844246     1.09700
C1794       C  0.56569828  0.99108823  0.59925757     1.09500
O1795       O  0.49836851  0.03432022  0.60893615    -0.80000
O1796       O  0.96114330  0.48719779  0.64051230    -0.80100
O1797       O  0.02403832  0.00766596  0.66984369    -0.80100
O1798       O  0.96938295  0.48363999  0.59625881    -0.80000
O1799       O  0.94904940  0.45071808  0.61147898    -0.80100
O1800       O  0.50336109  0.03417403  0.64774802    -0.80100
O1801       O  0.01425062  0.01061169  0.58492225    -0.80000
O1802       O  0.98565351  0.47037631  0.66552478    -0.80100
Co1803     Co  0.52849591  0.02303413  0.62701135     1.51500
Co1804     Co  0.98226241  0.46331551  0.62239289     1.51700
Co1805     Co  0.52506633  0.47121811  0.65629177     1.51600
Co1806     Co  0.51183134  0.47551735  0.60057826     1.51500
O1807       O  0.51489173  0.48512476  0.62898710    -1.42000
C1808       C  0.50386127  0.03314812  0.59119985     1.09600
C1809       C  0.96361947  0.48213985  0.65856448     1.09700
C1810       C  0.51152889  0.03015354  0.66492859     1.09600
C1811       C  0.94853100  0.46847794  0.59799192     1.09600
O1812       O  0.52352725  0.49109876  0.33575040    -0.80000
O1813       O  0.49701571  0.45418243  0.41653347    -0.80100
O1814       O  0.55894524  0.01572272  0.38983097    -0.80100
O1815       O  0.00146767  0.42680135  0.35360313    -0.80000
O1816       O  0.54116117  0.48064001  0.40411730    -0.80100
O1817       O  0.48215136  0.45493065  0.33213383    -0.80100
O1818       O  0.00950686  0.42782655  0.39258963    -0.80000
O1819       O  0.54888760  0.97781090  0.36137771    -0.80100
C1820       C  0.54650676  0.48206269  0.34319882     1.09600
C1821       C  0.00646942  0.43107349  0.41061156     1.09500
C1822       C  0.56089026  0.49717249  0.40263176     1.09700
C1823       C  0.99285067  0.43138325  0.33653243     1.09500
O1824       O  0.94549377  0.49231628  0.35332245    -0.80000
O1825       O  0.50126299  0.00933545  0.42382473    -0.80100
O1826       O  0.52672727  0.03218759  0.35860388    -0.80100
O1827       O  0.95307674  0.45067030  0.39697396    -0.80000
O1828       O  0.95835239  0.49493534  0.40070872    -0.80100
O1829       O  0.48318212  0.02966567  0.35498273    -0.80100
O1830       O  0.94478364  0.44801944  0.35781944    -0.80000
O1831       O  0.50543414  0.03090196  0.39584081    -0.80100
Co1832     Co  0.48410205  0.49166742  0.34570788     1.51500
Co1833     Co  0.49877609  0.48876913  0.40054041     1.51700
Co1834     Co  0.52656171  0.00167974  0.37864828     1.51600
Co1835     Co  0.97878542  0.44034214  0.37517832     1.51500
O1836       O  0.49511152  0.47768239  0.37249351    -1.42000
C1837       C  0.93257559  0.47069904  0.35268747     1.09600
C1838       C  0.50244256  0.03164913  0.41449161     1.09700
C1839       C  0.50428140  0.04241621  0.35180236     1.09600
C1840       C  0.94448225  0.47401813  0.40323919     1.09600
C1841       C  0.00138061  0.25692525  0.51153940     0.02400
C1842       C  0.00213491  0.25834695  0.49104405     0.02300
C1843       C  0.00145389  0.23408282  0.48023989    -0.18200
C1844       C  0.00012951  0.20843790  0.48945919     0.02400
C1845       C  0.99985127  0.20695381  0.51004615     0.02300
C1846       C  0.00010757  0.23133823  0.52080522    -0.18200
H1847       H  0.99986446  0.23036652  0.53654772     0.04400
H1848       H  0.00194522  0.23516201  0.46450555     0.04400
C1849       C  0.78014812  0.48987555  0.51028986     0.02400
C1850       C  0.77891449  0.48835785  0.48977261     0.02300
C1851       C  0.75318195  0.48929102  0.48031481    -0.18200
C1852       C  0.72842479  0.49318213  0.49051083     0.02400
C1853       C  0.72973129  0.49544454  0.51104347     0.02300
C1854       C  0.75552903  0.49396792  0.52052338    -0.18200
H1855       H  0.75638308  0.49508202  0.53624600     0.04400
H1856       H  0.75246286  0.48699269  0.46466823     0.04400
C1857       C  0.49981307  0.20616647  0.25965490     0.86600
C1858       C  0.97664776  0.20966699  0.24433865    -0.53700
C1859       C  0.97815546  0.23229236  0.23258047     0.09500
C1860       C  0.00312662  0.24945110  0.23727932     0.20500
C1861       C  0.52665010  0.20685435  0.24808200    -0.54400
C1862       C  0.52854175  0.22924279  0.23660762     0.09600
C1863       C  0.49907345  0.23372047  0.27060164    -0.53900
C1864       C  0.00027263  0.25654402  0.25897548     0.10200
H1865       H  0.96003579  0.19574577  0.24325936     0.14700
H1866       H  0.00421242  0.26764956  0.22778379     0.00400
H1867       H  0.54444545  0.19288488  0.25017175     0.15000
H1868       H  0.49788826  0.23504974  0.28631584     0.14800
C1869       C  0.99361853  0.40815064  0.32245050    -0.11900
C1870       C  0.97772664  0.40818214  0.30505103     0.03600
C1871       C  0.97845729  0.38483715  0.29316389    -0.12400
C1872       C  0.99430247  0.36112933  0.29840023     0.18500
C1873       C  0.50993444  0.36093442  0.31564080    -0.09500
C1874       C  0.50944350  0.38410973  0.32744427    -0.02400
H1875       H  0.96595514  0.38487622  0.28005141     0.05000
C1876       C  0.99333915  0.33605805  0.28648171     0.20400
H1877       H  0.52155515  0.38315546  0.34074057     0.10200
C1878       C  0.51181436  0.33183958  0.27119478    -0.15800
C1879       C  0.51384529  0.30679390  0.26127207     0.03100
C1880       C  0.99746376  0.28498937  0.26705665    -0.11100
C1881       C  0.97796921  0.29010401  0.28177868    -0.01100
C1882       C  0.97576320  0.31527321  0.29136116    -0.06300
H1883       H  0.52528798  0.34792122  0.26731450     0.06200
H1884       H  0.96445411  0.27426858  0.28605841     0.09500
Br1885     Br  0.53179233  0.32907583  0.32390338    -0.06000
Br1886     Br  0.95279976  0.43809616  0.29727842    -0.02900
Br1887     Br  0.54045906  0.30448749  0.24090037    -0.00100
Br1888     Br  0.94896566  0.32020106  0.31147607    -0.04500
C1889       C  0.50256118  0.06695370  0.33890868    -0.11900
C1890       C  0.48327900  0.06915748  0.32330287     0.03600
C1891       C  0.48193926  0.09235021  0.31130893    -0.12400
C1892       C  0.49972222  0.11353026  0.31417175     0.18500
C1893       C  0.51914958  0.11142181  0.32950515    -0.09500
C1894       C  0.52047503  0.08825917  0.34172355    -0.02400
H1895       H  0.46744488  0.09350253  0.29923456     0.05000
C1896       C  0.49900361  0.13648604  0.29998996     0.20400
H1897       H  0.53548390  0.08693360  0.35346689     0.10200
C1898       C  0.97891534  0.15801823  0.30136406    -0.15800
C1899       C  0.97772359  0.17975558  0.28787419     0.03100
C1900       C  0.49766682  0.18082094  0.27296826    -0.11100
C1901       C  0.51588520  0.15749289  0.27075350    -0.01100
C1902       C  0.51684683  0.13585555  0.28410682    -0.06300
H1903       H  0.96395902  0.15780564  0.31291721     0.06200
H1904       H  0.52926533  0.15520126  0.25843068     0.09500
Br1905     Br  0.54432472  0.13964254  0.33405577    -0.06000
Br1906     Br  0.45972065  0.04034745  0.31619026    -0.02900
Br1907     Br  0.94756831  0.20649559  0.29030122    -0.00100
Br1908     Br  0.54252552  0.10534423  0.27974794    -0.04500
C1909       C  0.50086205  0.05810452  0.42485875    -0.11900
C1910       C  0.98628447  0.08158183  0.41730401     0.03600
C1911       C  0.98648562  0.10642611  0.42740244    -0.12400
C1912       C  0.50166333  0.10852916  0.44471240     0.18500
C1913       C  0.51650505  0.08520578  0.45210843    -0.09500
C1914       C  0.51569968  0.06021432  0.44234225    -0.02400
H1915       H  0.97489667  0.12424515  0.42167242     0.05000
C1916       C  0.50107361  0.13493087  0.45520637     0.20400
H1917       H  0.52738651  0.04250213  0.44815803     0.10200
C1918       C  0.97704758  0.14383040  0.46494270    -0.15800
C1919       C  0.97609749  0.16809534  0.47571864     0.03100
C1920       C  0.49968253  0.18351450  0.47724168    -0.11100
C1921       C  0.52321657  0.17534976  0.46665549    -0.01100
C1922       C  0.52404234  0.15129664  0.45565829    -0.06300
H1923       H  0.95897689  0.13183287  0.46414815     0.06200
H1924       H  0.54113297  0.18758935  0.46714749     0.09500
Br1925     Br  0.53842285  0.08655559  0.47535734    -0.06000
Br1926     Br  0.96489372  0.08071395  0.39375914    -0.02900
Br1927     Br  0.94168145  0.18027571  0.48693563    -0.00100
Br1928     Br  0.55667391  0.14188484  0.44117520    -0.04500
C1929       C  0.00397868  0.28494544  0.48064877    -0.11900
C1930       C  0.98024408  0.30048706  0.47450891     0.03600
C1931       C  0.98276315  0.32522518  0.46444414    -0.12400
C1932       C  0.00875883  0.33487030  0.46031654     0.18500
C1933       C  0.53247019  0.31955304  0.46669138    -0.09500
C1934       C  0.52996615  0.29474276  0.47667620    -0.02400
H1935       H  0.96438638  0.33668668  0.45941132     0.05000
C1936       C  0.01063695  0.35947303  0.44777004     0.20400
H1937       H  0.54836034  0.28293558  0.48124208     0.10200
C1938       C  0.01378758  0.38539338  0.45599788    -0.15800
C1939       C  0.01393782  0.40902890  0.44424510     0.03100
C1940       C  0.01052454  0.40690844  0.42385630    -0.11100
C1941       C  0.50867103  0.38063233  0.41576375    -0.01100
C1942       C  0.50866209  0.35720295  0.42746341    -0.06300
H1943       H  0.01588801  0.38725752  0.47161606     0.06200
H1944       H  0.50622037  0.37823609  0.40020948     0.09500
Br1945     Br  0.56861295  0.33138777  0.46149310    -0.06000
Br1946     Br  0.94403952  0.28827235  0.47891750    -0.02900
Br1947     Br  0.01972642  0.44325718  0.45682879    -0.00100
Br1948     Br  0.50537292  0.32241153  0.41505387    -0.04500
C1949       C  0.70204931  0.49391394  0.47910691    -0.11900
C1950       C  0.69764665  0.01166875  0.46278304     0.03600
C1951       C  0.67385199  0.01034759  0.45139072    -0.12400
C1952       C  0.65336045  0.49275081  0.45616671     0.18500
C1953       C  0.65708421  0.47543062  0.47251914    -0.09500
C1954       C  0.68140945  0.47584335  0.48365323    -0.02400
H1955       H  0.67117632  0.02372717  0.43885005     0.05000
C1956       C  0.62830724  0.49302332  0.44359592     0.20400
H1957       H  0.68424606  0.46183747  0.49581244     0.10200
C1958       C  0.62248353  0.46975248  0.43262567    -0.15800
C1959       C  0.60050408  0.47052456  0.41921888     0.03100
C1960       C  0.58453032  0.49507987  0.41623037    -0.11100
C1961       C  0.59016392  0.01803233  0.42715769    -0.01100
C1962       C  0.61151275  0.01704554  0.44092164    -0.06300
H1963       H  0.63537082  0.45112414  0.43423335     0.06200
H1964       H  0.57765573  0.03687066  0.42528118     0.09500
Br1965     Br  0.62914223  0.45173039  0.48065417    -0.06000
Br1966     Br  0.72274865  0.03907801  0.45578074    -0.02900
Br1967     Br  0.59395463  0.43812965  0.40459103    -0.00100
Br1968     Br  0.61641747  0.04915915  0.45630188    -0.04500
C1969       C  0.91942929  0.47600416  0.41513291    -0.11900
C1970       C  0.91436969  0.45587922  0.42928076     0.03600
C1971       C  0.89086602  0.45855033  0.44066371    -0.12400
C1972       C  0.87176466  0.48070256  0.43811000     0.18500
C1973       C  0.87638519  0.00154160  0.42374472    -0.09500
C1974       C  0.90027856  0.99909303  0.41254513    -0.02400
H1975       H  0.88758259  0.44333022  0.45178725     0.05000
C1976       C  0.84763018  0.48274129  0.45100452     0.20400
H1977       H  0.90399787  0.01463530  0.40174601     0.10200
C1978       C  0.84395938  0.00589275  0.46333971    -0.15800
C1979       C  0.82194784  0.00800398  0.47623876     0.03100
C1980       C  0.80372237  0.48609488  0.47746317    -0.11100
C1981       C  0.80697512  0.46377850  0.46474278    -0.01100
C1982       C  0.82855323  0.46204324  0.45150337    -0.06300
H1983       H  0.85837480  0.02204008  0.46291611     0.06200
H1984       H  0.79227868  0.44786639  0.46487311     0.09500
Br1985     Br  0.85084221  0.03207117  0.41875102    -0.06000
Br1986     Br  0.93937234  0.42508498  0.43487927    -0.02900
Br1987     Br  0.81642217  0.04160237  0.49030566    -0.00100
Br1988     Br  0.83012490  0.43183508  0.43370762    -0.04500
C1989       C  0.59134640  0.49046615  0.58763144    -0.11900
C1990       C  0.59745393  0.47013346  0.57344891     0.03600
C1991       C  0.61984844  0.47268725  0.56115546    -0.12400
C1992       C  0.63701151  0.49469041  0.56282618     0.18500
C1993       C  0.63123148  0.01483254  0.57704083    -0.09500
C1994       C  0.60859845  0.01253731  0.58921622    -0.02400
H1995       H  0.62399393  0.45726996  0.55013554     0.05000
C1996       C  0.66097093  0.49561909  0.54980286     0.20400
H1997       H  0.60450163  0.02828275  0.59999936     0.10200
C1998       C  0.66273182  0.01760374  0.53643014    -0.15800
C1999       C  0.68491322  0.01825655  0.52358984     0.03100
C2000       C  0.70510190  0.49603165  0.52356265    -0.11100
C2001       C  0.70303467  0.47445086  0.53687974    -0.01100
C2002       C  0.68153680  0.47427596  0.55006983    -0.06300
H2003       H  0.64705270  0.03416767  0.53616173     0.06200
H2004       H  0.71861868  0.45778441  0.53723653     0.09500
Br2005     Br  0.65410137  0.04519430  0.58089266    -0.06000
Br2006     Br  0.57615089  0.43870859  0.56910165    -0.02900
Br2007     Br  0.68767926  0.05008098  0.50747670    -0.00100
Br2008     Br  0.68212043  0.44503915  0.56881699    -0.04500
C2009       C  0.80628894  0.48640934  0.52177196    -0.11900
C2010       C  0.82197413  0.46125996  0.52250593     0.03600
C2011       C  0.84532759  0.45835035  0.53463933    -0.12400
C2012       C  0.85299722  0.47995369  0.54657150     0.18500
C2013       C  0.83701909  0.50477637  0.54620777    -0.09500
C2014       C  0.81399253  0.00819642  0.53381258    -0.02400
H2015       H  0.85714318  0.43894222  0.53515283     0.05000
C2016       C  0.87737668  0.47631529  0.55963000     0.20400
H2017       H  0.80180053  0.02738740  0.53393998     0.10200
C2018       C  0.90243198  0.98591102  0.55353955    -0.15800
C2019       C  0.92569035  0.98388834  0.56573209     0.03100
C2020       C  0.92414687  0.47212295  0.58468944    -0.11100
C2021       C  0.89878162  0.46223096  0.59045664    -0.01100
C2022       C  0.87558229  0.46434518  0.57816742    -0.06300
H2023       H  0.90397486  0.99508246  0.53925374     0.06200
H2024       H  0.89686281  0.45294152  0.60466156     0.09500
Br2025     Br  0.84583555  0.03487266  0.56262252    -0.06000
Br2026     Br  0.81075523  0.42942612  0.50896008    -0.02900
Br2027     Br  0.95898380  0.99660878  0.55501858    -0.00100
Br2028     Br  0.84161291  0.45119614  0.58739019    -0.04500
C2029       C  0.50034565  0.05817351  0.57863548    -0.11900
C2030       C  0.99605842  0.08493322  0.58647775     0.03600
C2031       C  0.99512159  0.10790928  0.57422066    -0.12400
C2032       C  0.49744316  0.10525135  0.55404792     0.18500
C2033       C  0.50070425  0.07876450  0.54611530    -0.09500
C2034       C  0.50264177  0.05565585  0.55834088    -0.02400
H2035       H  0.99266750  0.12816914  0.58052346     0.05000
C2036       C  0.49726454  0.13049995  0.54180299     0.20400
H2037       H  0.50581049  0.03559752  0.55186800     0.10200
C2038       C  0.52132737  0.13710722  0.53208102    -0.15800
C2039       C  0.52258399  0.16181491  0.52172594     0.03100
C2040       C  0.99937345  0.18034322  0.52071997    -0.11100
C2041       C  0.97548635  0.17391484  0.53069113    -0.01100
C2042       C  0.97420589  0.14922178  0.54101202    -0.06300
H2043       H  0.53946852  0.12334255  0.53303230     0.06200
H2044       H  0.95766756  0.18814261  0.53034927     0.09500
Br2045     Br  0.50110195  0.07303563  0.51864208    -0.06000
Br2046     Br  0.99197035  0.09261949  0.61370513    -0.02900
Br2047     Br  0.55714873  0.17033378  0.51066522    -0.00100
Br2048     Br  0.94027731  0.14172555  0.55346183    -0.04500
C2049       C  0.00286226  0.28194943  0.52347729    -0.11900
C2050       C  0.97945732  0.29379031  0.53271632     0.03600
C2051       C  0.98129199  0.31839569  0.54286332    -0.12400
C2052       C  0.00633085  0.33127394  0.54417438     0.18500
C2053       C  0.52993314  0.31896776  0.53548316    -0.09500
C2054       C  0.52804789  0.29449532  0.52520272    -0.02400
H2055       H  0.96311366  0.32760962  0.54969357     0.05000
C2056       C  0.00731587  0.35762264  0.55454827     0.20400
H2057       H  0.54624197  0.28531366  0.51838804     0.10200
C2058       C  0.01905726  0.35817947  0.57320926    -0.15800
C2059       C  0.01952077  0.38269509  0.58364975     0.03100
C2060       C  0.00827469  0.40729798  0.57527361    -0.11100
C2061       C  0.99700029  0.40667920  0.55641495    -0.01100
C2062       C  0.99622807  0.38209857  0.54613532    -0.06300
H2063       H  0.02774468  0.33939976  0.57971178     0.06200
H2064       H  0.98808498  0.42529928  0.54981564     0.09500
Br2065     Br  0.56490618  0.33524755  0.53682598    -0.06000
Br2066     Br  0.94457728  0.27730685  0.53172408    -0.02900
Br2067     Br  0.03683024  0.38129396  0.60883175    -0.00100
Br2068     Br  0.47979497  0.38284412  0.52065797    -0.04500
C2069       C  0.55527560  0.23533102  0.22818778    -0.11900
C2070       C  0.57685593  0.24429388  0.24003550     0.03600
C2071       C  0.60222420  0.24937171  0.23179428    -0.12400
C2072       C  0.60680086  0.24435273  0.21205788     0.18500
C2073       C  0.58613521  0.23294554  0.20067529    -0.09500
C2074       C  0.56049774  0.22870538  0.20876648    -0.02400
H2075       H  0.61849584  0.25696927  0.24081264     0.05000
C2076       C  0.63353692  0.25000165  0.20354860     0.20400
H2077       H  0.54500548  0.21926579  0.20008274     0.10200
C2078       C  0.65625161  0.23199976  0.20737151    -0.15800
C2079       C  0.68043173  0.23358110  0.19671205     0.03100
C2080       C  0.68189485  0.25355994  0.18183308    -0.11100
C2081       C  0.65985139  0.27309239  0.17936743    -0.01100
C2082       C  0.63584170  0.27150110  0.19016306    -0.06300
H2083       H  0.65456490  0.21561139  0.21788652     0.06200
H2084       H  0.66076628  0.28890489  0.16833907     0.09500
Br2085     Br  0.59268427  0.22128819  0.17442768    -0.06000
Br2086     Br  0.57312701  0.24892188  0.26762863    -0.02900
Br2087     Br  0.70898278  0.20579690  0.20194049    -0.00100
Br2088     Br  0.60607388  0.29814114  0.18552353    -0.04500
C2089       C  0.95563772  0.24112366  0.21853322    -0.11900
C2090       C  0.96067411  0.25010637  0.19935060     0.03600
C2091       C  0.93861610  0.25754932  0.18679408    -0.12400
C2092       C  0.91132967  0.25659315  0.19293750     0.18500
C2093       C  0.90617802  0.24807047  0.21206729    -0.09500
C2094       C  0.92813612  0.24050505  0.22462420    -0.02400
H2095       H  0.94275682  0.26361544  0.17198157     0.05000
C2096       C  0.88844140  0.26185232  0.17877093     0.20400
H2097       H  0.92363371  0.23402652  0.23928099     0.10200
C2098       C  0.88246134  0.24118798  0.16558443    -0.15800
C2099       C  0.85883344  0.24346815  0.15382128     0.03100
C2100       C  0.84039684  0.26673794  0.15526647    -0.11100
C2101       C  0.84765131  0.28843728  0.16732388    -0.01100
C2102       C  0.87151249  0.28613894  0.17899411    -0.06300
H2103       H  0.89575485  0.22274400  0.16492738     0.06200
H2104       H  0.83401100  0.30656690  0.16851356     0.09500
Br2105     Br  0.86938048  0.24532068  0.22139559    -0.06000
Br2106     Br  0.99673095  0.25085613  0.18860449    -0.02900
Br2107     Br  0.85292221  0.21394455  0.13613901    -0.00100
Br2108     Br  0.87981095  0.31618570  0.19548767    -0.04500
C2109       C  0.74862963  0.17586407  0.08847200    -0.11900
C2110       C  0.76957551  0.17147001  0.07442588     0.03600
C2111       C  0.76882884  0.14912985  0.06178787    -0.12400
C2112       C  0.74798157  0.13054294  0.06298659     0.18500
C2113       C  0.72832644  0.13367718  0.07777111    -0.09500
C2114       C  0.72843039  0.15641813  0.09001648    -0.02400
H2115       H  0.78445614  0.14641264  0.05073692     0.05000
C2116       C  0.74750492  0.10766633  0.04898107     0.20400
H2117       H  0.71235663  0.15900353  0.10068791     0.10200
C2118       C  0.76871003  0.08717396  0.04967315    -0.15800
C2119       C  0.76837126  0.06458975  0.03729989     0.03100
C2120       C  0.74635675  0.06207714  0.02401024    -0.11100
C2121       C  0.72571594  0.08319062  0.02275614    -0.01100
C2122       C  0.72636147  0.10606534  0.03493500    -0.06300
H2123       H  0.78543131  0.08859845  0.06006676     0.06200
H2124       H  0.70887720  0.08168890  0.01247478     0.09500
Br2125     Br  0.70149627  0.10697850  0.08220439    -0.06000
Br2126     Br  0.79936747  0.19513714  0.07078033    -0.02900
Br2127     Br  0.79880266  0.03799716  0.03890242    -0.00100
Br2128     Br  0.69839202  0.13490707  0.03158037    -0.04500
C2129       C  0.74936781  0.34531955  0.08815550    -0.11900
C2130       C  0.74036531  0.34336606  0.06859541     0.03600
C2131       C  0.73626285  0.36703162  0.05720250    -0.12400
C2132       C  0.74107991  0.39286127  0.06479520     0.18500
C2133       C  0.74896140  0.39509837  0.08442286    -0.09500
C2134       C  0.75312365  0.37147446  0.09590098    -0.07200
H2135       H  0.73045577  0.36517358  0.04203797     0.05000
C2136       C  0.74066509  0.41667582  0.05143906     0.20400
H2137       H  0.75977800  0.37356095  0.11086785     0.10200
C2138       C  0.71578069  0.43126972  0.04703581    -0.15800
C2139       C  0.71520199  0.45380588  0.03431919     0.03100
C2140       C  0.73963086  0.46142421  0.02536439    -0.11100
C2141       C  0.76442778  0.44672310  0.02976530    -0.01100
C2142       C  0.76510123  0.42458655  0.04273169    -0.06300
H2143       H  0.69691072  0.42540984  0.05375538     0.06200
H2144       H  0.78345768  0.45297321  0.02349934     0.09500
Br2145     Br  0.75513194  0.42995821  0.09588824    -0.06000
Br2146     Br  0.73600792  0.30922024  0.05565104    -0.02900
Br2147     Br  0.68090018  0.47420621  0.03013715    -0.00100
Br2148     Br  0.79996440  0.40607836  0.04855659    -0.04500
C2149       C  0.74365487  0.06160958  0.97961237    -0.11900
C2150       C  0.72362539  0.06680367  0.96488017     0.03600
C2151       C  0.72529265  0.08935943  0.95247807    -0.12400
C2152       C  0.74582013  0.10824376  0.95487108     0.18500
C2153       C  0.76487158  0.10410336  0.97038436    -0.09500
C2154       C  0.76419562  0.08054477  0.98214706    -0.02400
H2155       H  0.70985245  0.09261576  0.94113993     0.05000
C2156       C  0.74472518  0.13317195  0.94213634     0.20400
H2157       H  0.77956535  0.07725317  0.99351383     0.10200
C2158       C  0.71972927  0.14880398  0.94069770    -0.15800
C2159       C  0.71653131  0.17117740  0.92802992     0.03100
C2160       C  0.73903297  0.17961403  0.91719339    -0.11100
C2161       C  0.76417012  0.16418300  0.91852768    -0.01100
C2162       C  0.76683977  0.14051785  0.93029606    -0.06300
H2163       H  0.70226560  0.14318311  0.94922109     0.06200
H2164       H  0.78133663  0.16980169  0.90970929     0.09500
Br2165     Br  0.79048838  0.13101733  0.97737108    -0.06000
Br2166     Br  0.69206106  0.04519973  0.96187977    -0.02900
Br2167     Br  0.68067941  0.18923355  0.92600950    -0.00100
Br2168     Br  0.79977564  0.11743999  0.92789603    -0.04500
C2169       C  0.74892322  0.34682100  0.91616012    -0.11900
C2170       C  0.76095108  0.37182656  0.91211830     0.03600
C2171       C  0.75915397  0.39327670  0.92558744    -0.12400
C2172       C  0.74541982  0.39041585  0.94324953     0.18500
C2173       C  0.73261338  0.36582018  0.94709864    -0.09500
C2174       C  0.73439968  0.34435098  0.93362216    -0.02400
H2175       H  0.76847043  0.41237264  0.92224870     0.05000
C2176       C  0.74420390  0.41359279  0.95717525     0.20400
H2177       H  0.72517254  0.32526758  0.93713356     0.10200
C2178       C  0.71936857  0.42909782  0.95947944    -0.15800
C2179       C  0.71792121  0.45215827  0.97153597     0.03100
C2180       C  0.74152387  0.45997601  0.98168615    -0.11100
C2181       C  0.76628011  0.44424435  0.97960807    -0.01100
C2182       C  0.76777074  0.42123956  0.96746954    -0.06300
H2183       H  0.70117247  0.42355222  0.95153911     0.06200
H2184       H  0.78468932  0.45030673  0.98704194     0.09500
Br2185     Br  0.71358148  0.36018586  0.97095294    -0.06000
Br2186     Br  0.77857917  0.37857584  0.88804794    -0.02900
Br2187     Br  0.68339511  0.47264631  0.97334429    -0.00100
Br2188     Br  0.80244749  0.40099941  0.96526635    -0.04500
C2189       C  0.51039624  0.05359221  0.67807732    -0.11900
C2190       C  0.52407957  0.07730726  0.67303599     0.03600
C2191       C  0.52177434  0.10029577  0.68480744    -0.12400
C2192       C  0.50590892  0.10023690  0.70159229     0.18500
C2193       C  0.99222944  0.07664921  0.70680187    -0.09500
C2194       C  0.99472208  0.05327860  0.69506442    -0.02400
H2195       H  0.53238783  0.11842365  0.68083846     0.05000
C2196       C  0.50424687  0.12536345  0.71320139     0.20400
H2197       H  0.98395247  0.03520483  0.69890342     0.10200
C2198       C  0.98294144  0.14494996  0.70946634    -0.15800
C2199       C  0.98270074  0.17067175  0.71824675     0.03100
C2200       C  0.50416126  0.17722290  0.73137610    -0.11100
C2201       C  0.52546644  0.15698753  0.73496139    -0.01100
C2202       C  0.52570001  0.13150637  0.72588340    -0.06300
H2203       H  0.96677693  0.14043459  0.69920587     0.06200
H2204       H  0.54244684  0.16033387  0.74459285     0.09500
Br2205     Br  0.96990143  0.07580708  0.72957052    -0.06000
Br2206     Br  0.54679445  0.07955414  0.65047714    -0.02900
Br2207     Br  0.95247791  0.19575420  0.71102144    -0.00100
Br2208     Br  0.55625706  0.10581672  0.73071676    -0.04500
C2209       C  0.00044876  0.27954015  0.72362999    -0.11900
C2210       C  0.97613769  0.29113161  0.71510787     0.03600
C2211       C  0.97726142  0.31378913  0.70268745    -0.12400
C2212       C  0.00258735  0.32419871  0.69752339     0.18500
C2213       C  0.52705003  0.31194061  0.70573878    -0.09500
C2214       C  0.52572055  0.29010339  0.71886740    -0.02400
H2215       H  0.95825295  0.32307621  0.69682514     0.05000
C2216       C  0.00302482  0.34848601  0.68435959     0.20400
H2217       H  0.54459437  0.28064031  0.72485364     0.10200
C2218       C  0.51650924  0.37152991  0.69071534    -0.15800
C2219       C  0.51796755  0.39474886  0.67897642     0.03100
C2220       C  0.00471289  0.39585757  0.66062044    -0.11100
C2221       C  0.99031582  0.37329879  0.65443769    -0.01100
C2222       C  0.98971776  0.34956068  0.66595740    -0.06300
H2223       H  0.52596352  0.37152215  0.70503655     0.06200
H2224       H  0.97997766  0.37393296  0.64040870     0.09500
Br2225     Br  0.56302379  0.32274427  0.69866372    -0.06000
Br2226     Br  0.94117385  0.27574395  0.71898360    -0.02900
Br2227     Br  0.53712468  0.42483309  0.68949407    -0.00100
Br2228     Br  0.97145768  0.31901749  0.65535698    -0.04500
C2229       C  0.66288006  0.25711350  0.84125373    -0.11900
C2230       C  0.64548240  0.23475840  0.84174214     0.03600
C2231       C  0.62208820  0.23474644  0.82960639    -0.12400
C2232       C  0.61555343  0.25649376  0.81672020     0.18500
C2233       C  0.63230153  0.27905963  0.81654186    -0.09500
C2234       C  0.65548745  0.27932319  0.82875997    -0.02400
H2235       H  0.60925611  0.21729524  0.82986585     0.05000
C2236       C  0.59228533  0.25436753  0.80274140     0.20400
H2237       H  0.66828000  0.29676186  0.82796984     0.10200
C2238       C  0.56502970  0.25901912  0.80896654    -0.15800
C2239       C  0.54269392  0.25489416  0.79638000     0.03100
C2240       C  0.54751303  0.24570538  0.77721387    -0.11100
C2241       C  0.57487719  0.24213224  0.77088474    -0.01100
C2242       C  0.59706875  0.24628886  0.78340503    -0.06300
H2243       H  0.56112400  0.26522880  0.82383020     0.06200
H2244       H  0.57904821  0.23518904  0.75621166     0.09500
Br2245     Br  0.62469118  0.30963351  0.79939299    -0.06000
Br2246     Br  0.65213485  0.20354057  0.85847474    -0.02900
Br2247     Br  0.50634282  0.25992820  0.80670729    -0.00100
Br2248     Br  0.63361520  0.23910814  0.77376152    -0.04500
C2249       C  0.95066284  0.24270718  0.77445011    -0.11900
C2250       C  0.94082337  0.22452737  0.78849709     0.03600
C2251       C  0.91579635  0.23067115  0.79768729    -0.12400
C2252       C  0.90013863  0.25479029  0.79330393     0.18500
C2253       C  0.91043170  0.27360273  0.78000905    -0.09500
C2254       C  0.93569525  0.26760140  0.77086442    -0.02400
H2255       H  0.90855281  0.21660574  0.80847206     0.05000
C2256       C  0.87445593  0.26061382  0.80425139     0.20400
H2257       H  0.94331487  0.28215253  0.76062764     0.10200
C2258       C  0.87672218  0.26857999  0.82365637    -0.15800
C2259       C  0.85358700  0.27136211  0.83546362     0.03100
C2260       C  0.82723138  0.26596938  0.82789632    -0.11100
C2261       C  0.82483368  0.25885824  0.80819300    -0.01100
C2262       C  0.84826636  0.25588560  0.79642562    -0.06300
H2263       H  0.89680030  0.27227918  0.82975322     0.06200
H2264       H  0.80485786  0.25478048  0.80210585     0.09500
Br2265     Br  0.89074048  0.30762768  0.77400120    -0.06000
Br2266     Br  0.96140324  0.19185019  0.79680929    -0.02900
Br2267     Br  0.85974391  0.28361204  0.86161277    -0.00100
Br2268     Br  0.84388658  0.24402116  0.77010702    -0.04500
C2269       C  0.81785420  0.50753084  0.72722311    -0.11900
C2270       C  0.81657077  0.49825944  0.70784723     0.03600
C2271       C  0.84096403  0.49299390  0.69746993    -0.12400
C2272       C  0.86675167  0.49662356  0.70610989     0.18500
C2273       C  0.86791105  0.00463932  0.72560131    -0.09500
C2274       C  0.84366870  0.00995000  0.73593011    -0.02400
H2275       H  0.83981963  0.48659377  0.68243384     0.05000
C2276       C  0.89195575  0.49295364  0.69434511     0.20400
H2277       H  0.84514291  0.01685010  0.75083540     0.10200
C2278       C  0.89766262  0.01269558  0.68070332    -0.15800
C2279       C  0.92128177  0.01005183  0.66923444     0.03100
C2280       C  0.93966786  0.48712226  0.67138131    -0.11100
C2281       C  0.93376431  0.46703241  0.68519771    -0.01100
C2282       C  0.91005686  0.46972133  0.69654756    -0.06300
H2283       H  0.88388694  0.03070546  0.67907172     0.06200
H2284       H  0.94719975  0.44875939  0.68676761     0.09500
Br2285     Br  0.90226161  0.01089124  0.73833819    -0.06000
Br2286     Br  0.78248951  0.49437849  0.69423591    -0.02900
Br2287     Br  0.92849647  0.03956658  0.65183782    -0.00100
Br2288     Br  0.90268747  0.44078788  0.71438749    -0.04500
C2289       C  0.72072069  0.51516935  0.72230529    -0.11900
C2290       C  0.71540290  0.03197116  0.70606789     0.03600
C2291       C  0.69296456  0.02776439  0.69369231    -0.12400
C2292       C  0.67486466  0.50750545  0.69745576     0.18500
C2293       C  0.68000935  0.49034302  0.71380035    -0.09500
C2294       C  0.70298649  0.49401289  0.72587116    -0.02400
H2295       H  0.68941395  0.04107625  0.68119080     0.05000
C2296       C  0.65002655  0.50501808  0.68476283     0.20400
H2297       H  0.70630143  0.48109370  0.73860644     0.10200
C2298       C  0.64683901  0.48112033  0.67382270    -0.15800
C2299       C  0.62322569  0.47790041  0.66225837     0.03100
C2300       C  0.60199085  0.99864618  0.66133253    -0.11100
C2301       C  0.60585427  0.02292938  0.67172696    -0.01100
C2302       C  0.62926575  0.02601046  0.68337236    -0.06300
H2303       H  0.66278330  0.46480407  0.67435930     0.06200
H2304       H  0.59002220  0.03934337  0.67145431     0.09500
Br2305     Br  0.65496755  0.46318730  0.72117337    -0.06000
Br2306     Br  0.73864641  0.06128019  0.69989366    -0.02900
Br2307     Br  0.62146929  0.44477497  0.64752675    -0.00100
Br2308     Br  0.63112911  0.05924517  0.69801457    -0.04500
C2309       C  0.75851423  0.19219335  0.83329954    -0.11900
C2310       C  0.77629227  0.16967580  0.83902003     0.03600
C2311       C  0.77821455  0.14605844  0.82746845    -0.12400
C2312       C  0.76297199  0.14450441  0.81012137     0.18500
C2313       C  0.74588964  0.16712181  0.80418211    -0.09500
C2314       C  0.74378333  0.19056225  0.81568170    -0.02400
H2315       H  0.79166364  0.12880396  0.83202410     0.05000
C2316       C  0.76484076  0.11926099  0.79828248     0.20400
H2317       H  0.73000758  0.20743702  0.81090354     0.10200
C2318       C  0.74195737  0.10318983  0.79679583    -0.15800
C2319       C  0.74231254  0.08001535  0.78489620     0.03100
C2320       C  0.76592670  0.07262021  0.77363081    -0.11100
C2321       C  0.78911639  0.08868273  0.77581408    -0.01100
C2322       C  0.78871510  0.11157622  0.78794962    -0.06300
H2323       H  0.72362482  0.10874870  0.80502149     0.06200
H2324       H  0.80830550  0.08354087  0.76868089     0.09500
Br2325     Br  0.72529211  0.16717585  0.78025202    -0.06000
Br2326     Br  0.79929475  0.17007711  0.86184753    -0.02900
Br2327     Br  0.70988132  0.05913203  0.78552015    -0.00100
Br2328     Br  0.82130482  0.13196241  0.78976497    -0.04500
C2329       C  0.76424149  0.47062503  0.77497471    -0.11900
C2330       C  0.78247881  0.44758415  0.77201352     0.03600
C2331       C  0.78126120  0.42452731  0.78413653    -0.12400
C2332       C  0.76244177  0.42406001  0.79947702     0.18500
C2333       C  0.74451418  0.44716599  0.80256580    -0.09500
C2334       C  0.74517410  0.46980103  0.79017649    -0.02400
H2335       H  0.79549829  0.40707127  0.78186110     0.05000
C2336       C  0.76258739  0.39984276  0.81257121     0.20400
H2337       H  0.73122318  0.48734849  0.79287128     0.10200
C2338       C  0.78637665  0.39234349  0.82342397    -0.15800
C2339       C  0.78730179  0.36962268  0.83599153     0.03100
C2340       C  0.76350455  0.35443986  0.83849145    -0.11100
C2341       C  0.73982272  0.36210965  0.82735911    -0.01100
C2342       C  0.73946818  0.38393559  0.81419591    -0.06300
H2343       H  0.80450870  0.40411198  0.82192743     0.06200
H2344       H  0.72159021  0.35038427  0.82821932     0.09500
Br2345     Br  0.72032863  0.45000387  0.82445452    -0.06000
Br2346     Br  0.81119067  0.44701896  0.75311202    -0.02900
Br2347     Br  0.82212527  0.36044833  0.84842938    -0.00100
Br2348     Br  0.70765159  0.38969665  0.79764591    -0.04500
C2349       C  0.67357207  0.26153114  0.07958178    -0.11900
C2350       C  0.64652239  0.25927010  0.08673337     0.03600
C2351       C  0.62398131  0.26152249  0.07395915    -0.12400
C2352       C  0.62760811  0.26581310  0.05405538     0.18500
C2353       C  0.65435785  0.26781533  0.04683567    -0.09500
C2354       C  0.67704746  0.26524480  0.05950284    -0.02400
H2355       H  0.60343380  0.25948617  0.07954620     0.05000
C2356       C  0.60307988  0.26729754  0.04117079     0.20400
H2357       H  0.69747523  0.26622508  0.05358463     0.10200
C2358       C  0.58822246  0.29244321  0.03859509    -0.15800
C2359       C  0.56324317  0.29391867  0.02827156     0.03100
C2360       C  0.55292289  0.27001464  0.02025339    -0.11100
C2361       C  0.56821180  0.24500973  0.02232713    -0.01100
C2362       C  0.59302632  0.24348117  0.03283754    -0.06300
H2363       H  0.59574011  0.31082782  0.04506098     0.06200
H2364       H  0.56035611  0.22649724  0.01628468     0.09500
Br2365     Br  0.66081735  0.27435242  0.01986703    -0.06000
Br2366     Br  0.63855045  0.25086451  0.11336719    -0.02900
Br2367     Br  0.54362191  0.32883249  0.02571051    -0.00100
Br2368     Br  0.61184038  0.20830880  0.03636968    -0.04500
C2369       C  0.82397067  0.26627838  0.07635023    -0.11900
C2370       C  0.82629155  0.26401021  0.05586450     0.03600
C2371       C  0.85208803  0.26514470  0.04715339    -0.12400
C2372       C  0.87580888  0.26874305  0.05829657     0.18500
C2373       C  0.87370788  0.27132524  0.07854025    -0.09500
C2374       C  0.84805293  0.26998003  0.08738998    -0.02400
H2375       H  0.85369804  0.26324153  0.03151029     0.05000
C2376       C  0.90257942  0.26915961  0.04842649     0.20400
H2377       H  0.84705981  0.27192478  0.10304857     0.10200
C2378       C  0.91270156  0.29427621  0.04270394    -0.15800
C2379       C  0.93700409  0.29502163  0.03202046     0.03100
C2380       C  0.95136529  0.27039030  0.02691401    -0.11100
C2381       C  0.94169233  0.24535644  0.03316687    -0.01100
C2382       C  0.91737985  0.24459052  0.04377061    -0.06300
H2383       H  0.90140495  0.31326988  0.04625875     0.06200
H2384       H  0.95280372  0.22633521  0.02944424     0.09500
Br2385     Br  0.90537535  0.27657831  0.09463029    -0.06000
Br2386     Br  0.79564702  0.25991372  0.03849816    -0.02900
Br2387     Br  0.94966970  0.32992499  0.02434934    -0.00100
Br2388     Br  0.90469007  0.20961288  0.05124849    -0.04500
C2389       C  0.54666974  0.26777756  0.97744159    -0.11900
C2390       C  0.55515347  0.24377220  0.96740939     0.03600
C2391       C  0.57850474  0.24357673  0.95567791    -0.12400
C2392       C  0.59389590  0.26694599  0.95410963     0.18500
C2393       C  0.58546848  0.29088847  0.96417515    -0.09500
C2394       C  0.56181738  0.29126640  0.97556337    -0.02400
H2395       H  0.58528384  0.22488178  0.94833887     0.05000
C2396       C  0.62025072  0.26525545  0.94366156     0.20400
H2397       H  0.55553407  0.30975565  0.98329807     0.10200
C2398       C  0.62212209  0.27697149  0.92511141    -0.15800
C2399       C  0.64735720  0.27657737  0.91541667     0.03100
C2400       C  0.67124210  0.26468933  0.92453953    -0.11100
C2401       C  0.66924878  0.25361468  0.94330439    -0.01100
C2402       C  0.64395586  0.25323043  0.95264317    -0.06300
H2403       H  0.60395007  0.28660104  0.91824728     0.06200
H2404       H  0.68731098  0.24424169  0.95047965     0.09500
Br2405     Br  0.60674010  0.32284335  0.96379609    -0.06000
Br2406     Br  0.53676342  0.21028933  0.97053328    -0.02900
Br2407     Br  0.64820261  0.29414625  0.89044887    -0.00100
Br2408     Br  0.64256525  0.23565461  0.97755397    -0.04500
C2409       C  0.94521832  0.26646871  0.98446404    -0.11900
C2410       C  0.93458967  0.24091518  0.98024696     0.03600
C2411       C  0.90932187  0.23971282  0.97049230    -0.12400
C2412       C  0.89437917  0.26376266  0.96467699     0.18500
C2413       C  0.90461712  0.28937826  0.96950402    -0.09500
C2414       C  0.92993827  0.29053868  0.97924234    -0.02400
H2415       H  0.90159307  0.21992148  0.96699001     0.05000
C2416       C  0.86921182  0.26169306  0.95252522     0.20400
H2417       H  0.93800431  0.31028449  0.98240220     0.10200
C2418       C  0.84341964  0.27049616  0.95982474    -0.15800
C2419       C  0.81955431  0.27021666  0.94820473     0.03100
C2420       C  0.82129944  0.26091226  0.92872956    -0.11100
C2421       C  0.84714813  0.25102468  0.92187642    -0.01100
C2422       C  0.87083308  0.25141391  0.93347703    -0.06300
H2423       H  0.84193730  0.27806479  0.97458006     0.06200
H2424       H  0.84927300  0.24365244  0.90711337     0.09500
Br2425     Br  0.88555224  0.32330449  0.96225171    -0.06000
Br2426     Br  0.95429253  0.20718769  0.98706642    -0.02900
Br2427     Br  0.78579973  0.28353611  0.95995129    -0.00100
Br2428     Br  0.90521875  0.23922411  0.92209933    -0.04500
C2429       C  0.78709860  0.49180403  0.28052978    -0.11900
C2430       C  0.78535077  0.00352610  0.29909707     0.03600
C2431       C  0.80695992  0.99838962  0.31249621    -0.12400
C2432       C  0.83111802  0.48209104  0.30734717     0.18500
C2433       C  0.83233155  0.47063546  0.28854008    -0.09500
C2434       C  0.81030368  0.47527606  0.27546208    -0.02400
H2435       H  0.80576651  0.00782398  0.32670032     0.05000
C2436       C  0.85508403  0.47920028  0.32104903     0.20400
H2437       H  0.81177238  0.46679316  0.26100548     0.10200
C2438       C  0.86494624  0.45310341  0.32746080    -0.15800
C2439       C  0.88929135  0.44954153  0.33860527     0.03100
C2440       C  0.90423233  0.47256430  0.34382705    -0.11100
C2441       C  0.89304645  0.99913016  0.33778315    -0.01100
C2442       C  0.86904173  0.00245279  0.32651177    -0.06300
H2443       H  0.85407658  0.43525487  0.32322192     0.06200
H2444       H  0.90399556  0.01728625  0.34110842     0.09500
Br2445     Br  0.86452059  0.45050496  0.27932082    -0.06000
Br2446     Br  0.75498360  0.02778666  0.30643711    -0.02900
Br2447     Br  0.90118133  0.41260993  0.34528840    -0.00100
Br2448     Br  0.85853623  0.03877361  0.31743914    -0.04500
C2449       C  0.69113867  0.49119207  0.27360655    -0.11900
C2450       C  0.66409140  0.99251133  0.26542715     0.03600
C2451       C  0.64136112  0.98920178  0.27731394    -0.12400
C2452       C  0.64486731  0.48370682  0.29705183     0.18500
C2453       C  0.67158793  0.48044355  0.30503712    -0.09500
C2454       C  0.69449311  0.48407653  0.29328974    -0.02400
H2455       H  0.62083675  0.99122001  0.27105657     0.05000
C2456       C  0.62012267  0.48286225  0.30929967     0.20400
H2457       H  0.71490430  0.48218345  0.29969783     0.10200
C2458       C  0.60443689  0.45961170  0.30907431    -0.15800
C2459       C  0.58039072  0.45875519  0.32006768     0.03100
C2460       C  0.57157441  0.48149876  0.33130050    -0.11100
C2461       C  0.58929053  0.00273190  0.33384159    -0.01100
C2462       C  0.61322637  0.00386015  0.32283172    -0.06300
H2463       H  0.61097646  0.44207551  0.30035571     0.06200
H2464       H  0.58419673  0.01904737  0.34403165     0.09500
Br2465     Br  0.67759267  0.47150042  0.33194817    -0.06000
Br2466     Br  0.65716951  0.99793069  0.23810314    -0.02900
Br2467     Br  0.56081493  0.42601845  0.31950836    -0.00100
Br2468     Br  0.63492844  0.03531625  0.32559293    -0.04500
C2469       C  0.74416736  0.16511751  0.16193717    -0.11900
C2470       C  0.72486112  0.14483171  0.15923876     0.03600
C2471       C  0.72626290  0.12126340  0.17094186    -0.12400
C2472       C  0.74578087  0.11798200  0.18603374     0.18500
C2473       C  0.76489232  0.13823491  0.18885033    -0.09500
C2474       C  0.76431432  0.16118285  0.17664501    -0.02400
H2475       H  0.71138316  0.10581444  0.16872676     0.05000
C2476       C  0.74472988  0.09428033  0.19946697     0.20400
H2477       H  0.77882130  0.17681192  0.17942944     0.10200
C2478       C  0.76662808  0.07453118  0.20030108    -0.15800
C2479       C  0.76625999  0.05213621  0.21308639     0.03100
C2480       C  0.74337400  0.04887017  0.22547813    -0.11100
C2481       C  0.72164087  0.06924028  0.22448558    -0.01100
C2482       C  0.72216609  0.09149270  0.21173518    -0.06300
H2483       H  0.78416146  0.07656488  0.19090387     0.06200
H2484       H  0.70377164  0.06869098  0.23350196     0.09500
Br2485     Br  0.79043043  0.13685327  0.21030297    -0.06000
Br2486     Br  0.69577272  0.14809345  0.14026680    -0.02900
Br2487     Br  0.79786898  0.02685275  0.21249483    -0.00100
Br2488     Br  0.69171786  0.11816800  0.21214603    -0.04500
C2489       C  0.74002197  0.32657836  0.17327358    -0.11900
C2490       C  0.73968466  0.32376631  0.19375612     0.03600
C2491       C  0.73773393  0.34715501  0.20545967    -0.12400
C2492       C  0.73582083  0.37336872  0.19712272     0.18500
C2493       C  0.73423330  0.37619043  0.17681686    -0.09500
C2494       C  0.73619942  0.35295309  0.16508354    -0.02400
H2495       H  0.73854516  0.34492941  0.22112881     0.05000
C2496       C  0.73818498  0.39761919  0.20956340     0.20400
H2497       H  0.73607918  0.35572771  0.14945335     0.10200
C2498       C  0.76357491  0.40983223  0.21055319    -0.15800
C2499       C  0.76627390  0.43428867  0.22063245     0.03100
C2500       C  0.74344067  0.44657812  0.23023934    -0.11100
C2501       C  0.71828400  0.43379143  0.22991861    -0.01100
C2502       C  0.71544964  0.40954874  0.21947379    -0.06300
H2503       H  0.78115051  0.40069705  0.20293769     0.06200
H2504       H  0.70051625  0.44334882  0.23706747     0.09500
Br2505     Br  0.73057428  0.41152566  0.16450844    -0.06000
Br2506     Br  0.74163145  0.28887775  0.20677197    -0.02900
Br2507     Br  0.80133357  0.45036989  0.22047243    -0.00100
Br2508     Br  0.67991758  0.39446751  0.21791299    -0.04500
C2509       C  0.74236619  0.52406350  0.23908532     0.86600
C2510       C  0.74451834  0.49708440  0.22762571    -0.53700
C2511       C  0.74427708  0.97366945  0.23877840     0.09500
C2512       C  0.74167012  0.97934430  0.26060192     0.20500
C2513       C  0.71598195  0.52152473  0.25125810    -0.54400
C2514       C  0.71523905  0.99776837  0.26201924     0.09600
C2515       C  0.76571783  0.52152277  0.25433407    -0.53900
C2516       C  0.76523495  0.99810707  0.26548468     0.10200
H2517       H  0.74470440  0.99580700  0.21173866     0.14700
H2518       H  0.74159308  0.96047292  0.26964950     0.00400
H2519       H  0.69857048  0.53618243  0.25156180     0.15000
H2520       H  0.78120367  0.53657985  0.25596933     0.14800
C2521       C  0.97237213  0.76681664  0.99392944     0.02400
C2522       C  0.97546429  0.76920430  0.01424674     0.02300
C2523       C  0.50183900  0.77037594  0.02244233    -0.18200
C2524       C  0.52528043  0.76927875  0.01068747     0.02400
C2525       C  0.52221736  0.76695977  0.99033057     0.02300
C2526       C  0.49576285  0.76588405  0.98215218    -0.18200
H2527       H  0.49336678  0.76425979  0.96651823     0.04400
H2528       H  0.50416418  0.77181804  0.03809228     0.04400
C2529       C  0.76712167  0.54674047  0.76108897     0.86600
C2530       C  0.79264484  0.54112017  0.74831812    -0.53700
C2531       C  0.79288771  0.01670530  0.73841331     0.09500
C2532       C  0.76714059  0.00016450  0.74197739     0.20500
C2533       C  0.74305227  0.54484990  0.74660777    -0.54400
C2534       C  0.74260958  0.02040820  0.73679968     0.09600
C2535       C  0.76633284  0.02102435  0.77400134    -0.53900
C2536       C  0.76623003  0.99677184  0.76428277     0.10200
H2537       H  0.80922671  0.55482382  0.74660976     0.14700
H2538       H  0.76689491  0.98047847  0.73403012     0.00400
H2539       H  0.72738094  0.56125402  0.74442467     0.15000
H2540       H  0.76602520  0.02215427  0.78977196     0.14800
C2541       C  0.50351955  0.70512162  0.74157607     0.86600
C2542       C  0.50315150  0.72907795  0.72713311    -0.53700
C2543       C  0.50028383  0.75424432  0.73549751     0.09500
C2544       C  0.49883729  0.75352071  0.75790535     0.20500
C2545       C  0.52725445  0.71114121  0.75575702    -0.54400
C2546       C  0.52505167  0.73640320  0.76424666     0.09600
C2547       C  0.97757722  0.70992073  0.75374102    -0.53900
C2548       C  0.97492816  0.73491224  0.76245144     0.10200
H2549       H  0.50510389  0.72638863  0.71153110     0.14700
H2550       H  0.99683093  0.77416666  0.76457258     0.00400
H2551       H  0.54478701  0.69738139  0.75904930     0.15000
H2552       H  0.96214603  0.69476082  0.75501149     0.14800
C2553       C  0.74166541  0.98602823  0.99288412     0.02400
C2554       C  0.74046151  0.98679225  0.01336313     0.02300
C2555       C  0.74137003  0.51175085  0.02289541    -0.18200
C2556       C  0.74336470  0.53648602  0.01262100     0.02400
C2557       C  0.74288070  0.53620463  0.99198688     0.02300
C2558       C  0.74266867  0.51070320  0.98247895    -0.18200
H2559       H  0.74355055  0.51006297  0.96675439     0.04400
H2560       H  0.74099538  0.51204799  0.03864860     0.04400
O2561       O  0.73299017  0.80671270  0.90143465    -0.80000
O2562       O  0.70185942  0.77977681  0.85341282    -0.80100
O2563       O  0.78472086  0.81774263  0.85844517    -0.80100
O2564       O  0.69976217  0.75782192  0.89646980    -0.80000
O2565       O  0.74062986  0.81745449  0.85219043    -0.80100
O2566       O  0.71974202  0.76422457  0.92491979    -0.80100
O2567       O  0.70102905  0.73649784  0.85966269    -0.80000
O2568       O  0.77705007  0.81480051  0.89796865    -0.80100
C2569       C  0.75290972  0.82211442  0.90391532     1.09600
C2570       C  0.68929801  0.75794964  0.85244453     1.09500
C2571       C  0.76297565  0.82921769  0.85105703     1.09700
C2572       C  0.69795186  0.76213652  0.91497348     1.09500
O2573       O  0.75068377  0.72459748  0.90663184    -0.80000
O2574       O  0.77954346  0.77823371  0.83442460    -0.80100
O2575       O  0.80174208  0.75794358  0.89712821    -0.80100
O2576       O  0.75660033  0.71574685  0.86370576    -0.80000
O2577       O  0.74219275  0.73889833  0.83759355    -0.80100
O2578       O  0.77380519  0.77202945  0.91937534    -0.80100
O2579       O  0.71749422  0.70485074  0.89082740    -0.80000
O2580       O  0.80527219  0.76121968  0.85832827    -0.80100
Co2581     Co  0.74097144  0.76673667  0.90209308     1.51500
Co2582     Co  0.74121506  0.77832859  0.84625735     1.51700
Co2583     Co  0.79021592  0.78651766  0.87794429     1.51600
Co2584     Co  0.73084209  0.73755328  0.88019298     1.51500
O2585       O  0.75313116  0.77001599  0.87421468    -1.42000
C2586       C  0.73535527  0.70393084  0.90431837     1.09600
C2587       C  0.80252612  0.76786142  0.84072279     1.09700
C2588       C  0.79757390  0.76300702  0.91476058     1.09600
C2589       C  0.75302906  0.71714875  0.84545336     1.09600
O2590       O  0.79804209  0.78878110  0.14213263    -0.80000
O2591       O  0.72178701  0.70848104  0.10695178    -0.80100
O2592       O  0.76434389  0.70454155  0.14923700    -0.80100
O2593       O  0.77517431  0.76031819  0.07781818    -0.80000
O2594       O  0.71949039  0.70313876  0.14622648    -0.80100
O2595       O  0.79612540  0.77101947  0.10504422    -0.80100
O2596       O  0.76532201  0.71700053  0.10190702    -0.80000
O2597       O  0.80032436  0.74470544  0.14564624    -0.80100
C2598       C  0.81195765  0.76699650  0.14669784     1.09600
C2599       C  0.74549680  0.70135838  0.10014094     1.09500
C2600       C  0.74267284  0.69173136  0.15109009     1.09700
C2601       C  0.79707566  0.76609450  0.08658839     1.09500
O2602       O  0.77450515  0.82189115  0.11330944    -0.80000
O2603       O  0.69692891  0.75883600  0.14948840    -0.80100
O2604       O  0.76093401  0.78242787  0.16617575    -0.80100
O2605       O  0.72142741  0.75103791  0.08615986    -0.80000
O2606       O  0.69590905  0.76420947  0.11022123    -0.80100
O2607       O  0.74027354  0.80551015  0.14208202    -0.80100
O2608       O  0.74398190  0.79825497  0.09755358    -0.80000
O2609       O  0.72714277  0.74108809  0.17052490    -0.80100
Co2610     Co  0.76553719  0.78738605  0.12356295     1.51500
Co2611     Co  0.71023159  0.73526718  0.12817095     1.51700
Co2612     Co  0.76296491  0.74345822  0.15618814     1.51600
Co2613     Co  0.75614326  0.75665973  0.10154488     1.51500
O2614       O  0.74682205  0.75287714  0.12970332    -1.42000
C2615       C  0.75625884  0.82084907  0.10010198     1.09600
C2616       C  0.70335455  0.75185552  0.16667927     1.09700
C2617       C  0.74639989  0.80322153  0.15996018     1.09600
C2618       C  0.69805464  0.75924425  0.09240300     1.09600
O2619       O  0.56143087  0.51730705  0.64531706    -0.80000
O2620       O  0.00208617  0.93396942  0.60420940    -0.80100
O2621       O  0.52659255  0.93306408  0.64659566    -0.80100
O2622       O  0.55200262  0.96987853  0.60093395    -0.80000
O2623       O  0.98269579  0.93162583  0.64127038    -0.80100
O2624       O  0.55653743  0.51408233  0.60613955    -0.80100
O2625       O  0.50964694  0.95594558  0.57676487    -0.80000
O2626       O  0.56449281  0.97260128  0.65033641    -0.80100
C2627       C  0.57523957  0.49591073  0.65114667     1.09600
C2628       C  0.00665213  0.93358816  0.58570610     1.09500
C2629       C  0.00477817  0.92058547  0.64823727     1.09700
C2630       C  0.56583483  0.49112895  0.59936007     1.09500
O2631       O  0.49846818  0.53434151  0.60899462    -0.80000
O2632       O  0.96092488  0.98688185  0.64038094    -0.80100
O2633       O  0.02424917  0.50786829  0.66990725    -0.80100
O2634       O  0.96924275  0.98359953  0.59614510    -0.80000
O2635       O  0.94899008  0.95051439  0.61124527    -0.80100
O2636       O  0.50351063  0.53432024  0.64780275    -0.80100
O2637       O  0.01437212  0.51061622  0.58500285    -0.80000
O2638       O  0.98545375  0.97009895  0.66539217    -0.80100
Co2639     Co  0.52862917  0.52315919  0.62706092     1.51500
Co2640     Co  0.98214577  0.96312989  0.62222656     1.51700
Co2641     Co  0.52486806  0.97101175  0.65618120     1.51600
Co2642     Co  0.51168656  0.97548214  0.60044612     1.51500
O2643       O  0.51472699  0.98499209  0.62888193    -1.42000
C2644       C  0.50393561  0.53314717  0.59125706     1.09600
C2645       C  0.96338949  0.98179993  0.65843271     1.09700
C2646       C  0.51167683  0.53031012  0.66498646     1.09600
C2647       C  0.94843544  0.96836418  0.59781770     1.09600
O2648       O  0.52335944  0.99086534  0.33568209    -0.80000
O2649       O  0.49656201  0.95430625  0.41644641    -0.80100
O2650       O  0.55920214  0.51579480  0.38977072    -0.80100
O2651       O  0.00091770  0.92684910  0.35351616    -0.80000
O2652       O  0.54083447  0.98054894  0.40407387    -0.80100
O2653       O  0.48171897  0.95502903  0.33203878    -0.80100
O2654       O  0.00897577  0.92795090  0.39247583    -0.80000
O2655       O  0.54918504  0.47781970  0.36131999    -0.80100
C2656       C  0.54630665  0.98190584  0.34323261     1.09600
C2657       C  0.00591663  0.93117623  0.41049446     1.09500
C2658       C  0.56060757  0.99703469  0.40264676     1.09700
C2659       C  0.99232044  0.93145998  0.33644753     1.09500
O2660       O  0.94522937  0.99261567  0.35314619    -0.80000
O2661       O  0.50151660  0.50919654  0.42391992    -0.80100
O2662       O  0.52678106  0.53222372  0.35866767    -0.80100
O2663       O  0.95263524  0.95100663  0.39684314    -0.80000
O2664       O  0.95809442  0.99524080  0.40055977    -0.80100
O2665       O  0.48324146  0.52960808  0.35513031    -0.80100
O2666       O  0.94431803  0.94834362  0.35771802    -0.80000
O2667       O  0.50570088  0.53077431  0.39592960    -0.80100
Co2668     Co  0.48387758  0.99173397  0.34558476     1.51500
Co2669     Co  0.49848971  0.98887776  0.40044929     1.51700
Co2670     Co  0.52684484  0.50162929  0.37866918     1.51600
Co2671     Co  0.97829743  0.94053756  0.37507335     1.51500
O2672       O  0.49479041  0.97778561  0.37239553    -1.42000
C2673       C  0.93219853  0.97106127  0.35257234     1.09600
C2674       C  0.50269371  0.53150434  0.41458127     1.09700
C2675       C  0.50428236  0.54245208  0.35194052     1.09600
C2676       C  0.94412128  0.97439521  0.40307169     1.09600
C2677       C  0.00122932  0.75697480  0.51137486     0.02400
C2678       C  0.00210672  0.75831100  0.49087872     0.02300
C2679       C  0.00158440  0.73398880  0.48013082    -0.18200
C2680       C  0.00025731  0.70837922  0.48940523     0.02400
C2681       C  0.99985453  0.70698211  0.50999460     0.02300
C2682       C  0.99998637  0.73142055  0.52069528    -0.18200
H2683       H  0.99968847  0.73051784  0.53643878     0.04400
H2684       H  0.00215485  0.73499737  0.46439611     0.04400
C2685       C  0.78004077  0.99040880  0.51021278     0.02400
C2686       C  0.77877493  0.98896563  0.48969802     0.02300
C2687       C  0.75303855  0.98983371  0.48025793    -0.18200
C2688       C  0.72828788  0.99359451  0.49046756     0.02400
C2689       C  0.72961950  0.99584200  0.51100302     0.02300
C2690       C  0.75543226  0.99441864  0.52046946    -0.18200
H2691       H  0.75630797  0.99548598  0.53619336     0.04400
H2692       H  0.75231357  0.98752856  0.46461214     0.04400
C2693       C  0.49962551  0.70637773  0.25978007     0.86600
C2694       C  0.97633359  0.70988457  0.24454203    -0.53700
C2695       C  0.97780949  0.73245730  0.23271568     0.09500
C2696       C  0.00288457  0.74956162  0.23729328     0.20500
C2697       C  0.52637908  0.70695591  0.24810131    -0.54400
C2698       C  0.52826858  0.72929108  0.23657605     0.09600
C2699       C  0.49903873  0.73397577  0.27066613    -0.53900
C2700       C  0.00018873  0.75673367  0.25898113     0.10200
H2701       H  0.95968954  0.69598957  0.24355429     0.14700
H2702       H  0.00397988  0.76775207  0.22778694     0.00400
H2703       H  0.54416211  0.69295251  0.25017924     0.15000
H2704       H  0.49796335  0.73539886  0.28638079     0.14800
C2705       C  0.99311815  0.90828638  0.32233937    -0.11900
C2706       C  0.97704976  0.90826461  0.30502437     0.03600
C2707       C  0.97787904  0.88498184  0.29308397    -0.12400
C2708       C  0.99411139  0.86144802  0.29814239     0.18500
C2709       C  0.51008909  0.86138440  0.31522764    -0.09500
C2710       C  0.50945033  0.88447855  0.32711235    -0.02400
H2711       H  0.96519428  0.88493644  0.28006114     0.05000
C2712       C  0.99316934  0.83637193  0.28624258     0.20400
H2713       H  0.52186220  0.88367341  0.34027231     0.10200
C2714       C  0.51185243  0.83200625  0.27109072    -0.15800
C2715       C  0.51390583  0.80691071  0.26123886     0.03100
C2716       C  0.99737375  0.78520522  0.26698448    -0.11100
C2717       C  0.97770779  0.79045271  0.28157001    -0.01100
C2718       C  0.97544619  0.81568767  0.29106017    -0.06300
H2719       H  0.52544432  0.84801098  0.26726198     0.06200
H2720       H  0.96410599  0.77467134  0.28581077     0.09500
Br2721     Br  0.53260434  0.82979991  0.32316564    -0.06000
Br2722     Br  0.95191720  0.93808290  0.29738513    -0.02900
Br2723     Br  0.54071054  0.80437391  0.24100654    -0.00100
Br2724     Br  0.94840098  0.82083294  0.31098973    -0.04500
C2725       C  0.50247859  0.56713737  0.33914944    -0.11900
C2726       C  0.48242597  0.57004307  0.32405166     0.03600
C2727       C  0.48124243  0.59326678  0.31208073    -0.12400
C2728       C  0.49993195  0.61377240  0.31441847     0.18500
C2729       C  0.52009655  0.61097657  0.32924290    -0.09500
C2730       C  0.52125788  0.58780965  0.34145819    -0.02400
H2731       H  0.46612925  0.59494332  0.30040205     0.05000
C2732       C  0.49918607  0.63676332  0.30024371     0.20400
H2733       H  0.53687443  0.58596072  0.35278383     0.10200
C2734       C  0.97921535  0.65838553  0.30175072    -0.15800
C2735       C  0.97789119  0.68011263  0.28824942     0.03100
C2736       C  0.49757752  0.68107089  0.27316029    -0.11100
C2737       C  0.51565223  0.65765914  0.27082719    -0.01100
C2738       C  0.51675824  0.63603955  0.28420219    -0.06300
H2739       H  0.96443944  0.65825269  0.31342692     0.06200
H2740       H  0.52880039  0.65528722  0.25837228     0.09500
Br2741     Br  0.54649416  0.63825660  0.33312174    -0.06000
Br2742     Br  0.45746779  0.54217334  0.31751361    -0.02900
Br2743     Br  0.94789082  0.70697183  0.29091794    -0.00100
Br2744     Br  0.54215743  0.60537658  0.27960483    -0.04500
C2745       C  0.50109622  0.55794851  0.42494292    -0.11900
C2746       C  0.98624344  0.58131720  0.41748300     0.03600
C2747       C  0.98644778  0.60618404  0.42755059    -0.12400
C2748       C  0.50189213  0.60840725  0.44473657     0.18500
C2749       C  0.51697791  0.58517247  0.45204533    -0.09500
C2750       C  0.51617934  0.56016127  0.44230858    -0.02400
H2751       H  0.97465278  0.62392407  0.42189561     0.05000
C2752       C  0.50128828  0.63482058  0.45521456     0.20400
H2753       H  0.52805129  0.54251659  0.44805096     0.10200
C2754       C  0.97726263  0.64369535  0.46496339    -0.15800
C2755       C  0.97629202  0.66797113  0.47572264     0.03100
C2756       C  0.49986809  0.68340899  0.47723981    -0.11100
C2757       C  0.52340260  0.67526492  0.46664717    -0.01100
C2758       C  0.52423092  0.65122519  0.45563553    -0.06300
H2759       H  0.95920512  0.63167710  0.46418383     0.06200
H2760       H  0.54130010  0.68753189  0.46712094     0.09500
Br2761     Br  0.53919379  0.58665145  0.47514454    -0.06000
Br2762     Br  0.96446988  0.58023107  0.39412431    -0.02900
Br2763     Br  0.94185102  0.68015547  0.48690172    -0.00100
Br2764     Br  0.55679777  0.64192683  0.44104878    -0.04500
C2765       C  0.00385347  0.78489288  0.48043237    -0.11900
C2766       C  0.98006184  0.80080291  0.47487542     0.03600
C2767       C  0.98246360  0.82557562  0.46483439    -0.12400
C2768       C  0.00839395  0.83488712  0.46013017     0.18500
C2769       C  0.53218305  0.81918384  0.46589446    -0.09500
C2770       C  0.52979421  0.79435089  0.47588097    -0.02400
H2771       H  0.96401866  0.83731366  0.46024766     0.05000
C2772       C  0.01002829  0.85950973  0.44757152     0.20400
H2773       H  0.54822945  0.78227860  0.48001451     0.10200
C2774       C  0.01406506  0.88531440  0.45573616    -0.15800
C2775       C  0.01411845  0.90896408  0.44398705     0.03100
C2776       C  0.00979954  0.90696050  0.42368260    -0.11100
C2777       C  0.50695847  0.88080147  0.41563290    -0.01100
C2778       C  0.50696702  0.85736942  0.42732205    -0.06300
H2779       H  0.01695219  0.88707744  0.47130055     0.06200
H2780       H  0.50372429  0.87853028  0.40013696     0.09500
Br2781     Br  0.56823799  0.83052147  0.45983291    -0.06000
Br2782     Br  0.94388825  0.78900429  0.47996263    -0.02900
Br2783     Br  0.02111677  0.94303803  0.45639337    -0.00100
Br2784     Br  0.50219163  0.82277231  0.41497843    -0.04500
C2785       C  0.70190885  0.99412413  0.47906678    -0.11900
C2786       C  0.69786002  0.51161606  0.46290115     0.03600
C2787       C  0.67401362  0.51054849  0.45153232    -0.12400
C2788       C  0.65326334  0.99250338  0.45609218     0.18500
C2789       C  0.65709431  0.97528086  0.47249464    -0.09500
C2790       C  0.68139468  0.97592731  0.48364382    -0.02400
H2791       H  0.67137994  0.52403367  0.43904508     0.05000
C2792       C  0.62811673  0.99276352  0.44358996     0.20400
H2793       H  0.68431180  0.96199907  0.49584087     0.10200
C2794       C  0.62196649  0.96937322  0.43285019    -0.15800
C2795       C  0.59992020  0.97015362  0.41948638     0.03100
C2796       C  0.58424972  0.99484648  0.41626307    -0.11100
C2797       C  0.59013616  0.51816077  0.42733652    -0.01100
C2798       C  0.61147336  0.51718484  0.44111133    -0.06300
H2799       H  0.63464790  0.95063606  0.43459887     0.06200
H2800       H  0.57741521  0.53689052  0.42560524     0.09500
Br2801     Br  0.62935702  0.95138935  0.48069486    -0.06000
Br2802     Br  0.72316197  0.53887841  0.45598347    -0.02900
Br2803     Br  0.59286818  0.93753917  0.40525339    -0.00100
Br2804     Br  0.61607739  0.54910581  0.45674844    -0.04500
C2805       C  0.91904537  0.97649902  0.41491761    -0.11900
C2806       C  0.91383273  0.95636424  0.42901850     0.03600
C2807       C  0.89032781  0.95915171  0.44037825    -0.12400
C2808       C  0.87135442  0.98141330  0.43783690     0.18500
C2809       C  0.87663715  0.50080882  0.42397067    -0.09500
C2810       C  0.90051435  0.49847552  0.41274544    -0.02400
H2811       H  0.88694427  0.94392865  0.45148042     0.05000
C2812       C  0.84721751  0.98351189  0.45072222     0.20400
H2813       H  0.90410077  0.51400618  0.40190983     0.10200
C2814       C  0.84435983  0.50509393  0.46364304    -0.15800
C2815       C  0.82224011  0.50727062  0.47644686     0.03100
C2816       C  0.80354117  0.98674414  0.47736130    -0.11100
C2817       C  0.80678015  0.96440646  0.46466572    -0.01100
C2818       C  0.82823122  0.96273260  0.45133318    -0.06300
H2819       H  0.85882485  0.52120021  0.46327892     0.06200
H2820       H  0.79215065  0.94843472  0.46487872     0.09500
Br2821     Br  0.85086305  0.53113755  0.41894613    -0.06000
Br2822     Br  0.93863046  0.92539546  0.43459973    -0.02900
Br2823     Br  0.81670780  0.54089072  0.49048730    -0.00100
Br2824     Br  0.82974942  0.93245495  0.43359312    -0.04500
C2825       C  0.59120449  0.99049472  0.58752446    -0.11900
C2826       C  0.59732231  0.97024444  0.57328610     0.03600
C2827       C  0.61970896  0.97288732  0.56099688    -0.12400
C2828       C  0.63685673  0.99489575  0.56272949     0.18500
C2829       C  0.63140744  0.51470281  0.57708935    -0.09500
C2830       C  0.60876422  0.51249702  0.58926995    -0.02400
H2831       H  0.62387038  0.95752819  0.54993918     0.05000
C2832       C  0.66084392  0.99588711  0.54973654     0.20400
H2833       H  0.60467803  0.52829993  0.60001292     0.10200
C2834       C  0.66284464  0.51729293  0.53646029    -0.15800
C2835       C  0.68501627  0.51791230  0.52360964     0.03100
C2836       C  0.70500570  0.99638652  0.52353010    -0.11100
C2837       C  0.70294711  0.97478046  0.53682616    -0.01100
C2838       C  0.68142146  0.97455340  0.54999207    -0.06300
H2839       H  0.64717112  0.53386221  0.53618161     0.06200
H2840       H  0.71854177  0.95812350  0.53717199     0.09500
Br2841     Br  0.65432546  0.54504670  0.58086437    -0.06000
Br2842     Br  0.57605691  0.93881269  0.56886965    -0.02900
Br2843     Br  0.68777691  0.54972540  0.50748552    -0.00100
Br2844     Br  0.68195636  0.94523636  0.56867491    -0.04500
C2845       C  0.80619389  0.98682090  0.52166303    -0.11900
C2846       C  0.82168083  0.96155851  0.52243692     0.03600
C2847       C  0.84501003  0.95849366  0.53458197    -0.12400
C2848       C  0.85286026  0.98006834  0.54647348     0.18500
C2849       C  0.83709240  0.00501708  0.54605630    -0.09500
C2850       C  0.81390691  0.50780964  0.53396680    -0.02400
H2851       H  0.85667528  0.93900208  0.53512360     0.05000
C2852       C  0.87725605  0.97631027  0.55950345     0.20400
H2853       H  0.80156971  0.52691293  0.53412355     0.10200
C2854       C  0.90252527  0.48601859  0.55369997    -0.15800
C2855       C  0.92577424  0.48403300  0.56590665     0.03100
C2856       C  0.92405089  0.97203136  0.58452743    -0.11100
C2857       C  0.89866742  0.96222260  0.59032604    -0.01100
C2858       C  0.87545091  0.96438823  0.57805701    -0.06300
H2859       H  0.90406013  0.49522278  0.53942430     0.06200
H2860       H  0.89674431  0.95297922  0.60454602     0.09500
Br2861     Br  0.84548297  0.53464951  0.56284048    -0.06000
Br2862     Br  0.81022917  0.92980979  0.50889766    -0.02900
Br2863     Br  0.95904264  0.49687504  0.55522087    -0.00100
Br2864     Br  0.84144580  0.95141495  0.58734785    -0.04500
C2865       C  0.50035814  0.55815959  0.57867622    -0.11900
C2866       C  0.99544517  0.58486964  0.58648261     0.03600
C2867       C  0.99457422  0.60786901  0.57424376    -0.12400
C2868       C  0.49754777  0.60528615  0.55410663     0.18500
C2869       C  0.50143148  0.57882630  0.54620075    -0.09500
C2870       C  0.50328069  0.55570665  0.55842048    -0.02400
H2871       H  0.99165784  0.62809297  0.58054065     0.05000
C2872       C  0.49737471  0.63058442  0.54188430     0.20400
H2873       H  0.50689981  0.53568358  0.55197085     0.10200
C2874       C  0.52147076  0.63728221  0.53223135    -0.15800
C2875       C  0.52268955  0.66196968  0.52184122     0.03100
C2876       C  0.99941755  0.68040855  0.52073198    -0.11100
C2877       C  0.97551578  0.67393193  0.53066633    -0.01100
C2878       C  0.97426002  0.64925250  0.54101340    -0.06300
H2879       H  0.53966232  0.62359532  0.53325093     0.06200
H2880       H  0.95765502  0.68810430  0.53026380     0.09500
Br2881     Br  0.50286746  0.57309717  0.51874769    -0.06000
Br2882     Br  0.99031060  0.59246563  0.61364453    -0.02900
Br2883     Br  0.55727110  0.67060053  0.51085932    -0.00100
Br2884     Br  0.94026149  0.64171145  0.55335699    -0.04500
C2885       C  0.00270349  0.78204677  0.52325880    -0.11900
C2886       C  0.97943345  0.79361104  0.53281715     0.03600
C2887       C  0.98124101  0.81827953  0.54288740    -0.12400
C2888       C  0.00614428  0.83144096  0.54385801     0.18500
C2889       C  0.52964435  0.81937958  0.53489557    -0.09500
C2890       C  0.52776258  0.79489586  0.52463649    -0.02400
H2891       H  0.96316007  0.82729313  0.54995596     0.05000
C2892       C  0.00712754  0.85776975  0.55424072     0.20400
H2893       H  0.54586958  0.78591083  0.51759601     0.10200
C2894       C  0.01917685  0.85833387  0.57280221    -0.15800
C2895       C  0.01966203  0.88281902  0.58326817     0.03100
C2896       C  0.00816541  0.90738665  0.57500295    -0.11100
C2897       C  0.99657445  0.90677019  0.55623928    -0.01100
C2898       C  0.99573877  0.88220463  0.54594842    -0.06300
H2899       H  0.02807240  0.83957816  0.57921313     0.06200
H2900       H  0.98743797  0.92536677  0.54974246     0.09500
Br2901     Br  0.56448948  0.83594499  0.53591281    -0.06000
Br2902     Br  0.94478016  0.77665434  0.53240408    -0.02900
Br2903     Br  0.03728891  0.88143594  0.60834236    -0.00100
Br2904     Br  0.47873519  0.88289702  0.52065443    -0.04500
C2905       C  0.55501696  0.73530553  0.22811188    -0.11900
C2906       C  0.57670024  0.74412356  0.23993419     0.03600
C2907       C  0.60205434  0.74916638  0.23164694    -0.12400
C2908       C  0.60654287  0.74420403  0.21189159     0.18500
C2909       C  0.58579804  0.73286490  0.20054448    -0.09500
C2910       C  0.56015698  0.72871384  0.20867199    -0.02400
H2911       H  0.61838744  0.75668195  0.24064701     0.05000
C2912       C  0.63326890  0.74982773  0.20332716     0.20400
H2913       H  0.54460378  0.71934355  0.20000398     0.10200
C2914       C  0.65600413  0.73184382  0.20714422    -0.15800
C2915       C  0.68017737  0.73342459  0.19646831     0.03100
C2916       C  0.68164651  0.75341958  0.18160132    -0.11100
C2917       C  0.65957019  0.77291651  0.17912415    -0.01100
C2918       C  0.63554923  0.77129825  0.18991028    -0.06300
H2919       H  0.65433715  0.71546218  0.21766667     0.06200
H2920       H  0.66047005  0.78872800  0.16809373     0.09500
Br2921     Br  0.59226711  0.72111851  0.17430836    -0.06000
Br2922     Br  0.57314018  0.74859876  0.26755335    -0.02900
Br2923     Br  0.70870648  0.70560244  0.20164329    -0.00100
Br2924     Br  0.60573695  0.79786950  0.18521025    -0.04500
C2925       C  0.95524331  0.74126168  0.21866237    -0.11900
C2926       C  0.96027115  0.75035915  0.19950240     0.03600
C2927       C  0.93822114  0.75788834  0.18695639    -0.12400
C2928       C  0.91092341  0.75683742  0.19305276     0.18500
C2929       C  0.90575810  0.74810266  0.21213389    -0.09500
C2930       C  0.92771723  0.74051247  0.22470404    -0.02400
H2931       H  0.94238119  0.76405851  0.17216906     0.05000
C2932       C  0.88806232  0.76213608  0.17884879     0.20400
H2933       H  0.92319213  0.73390612  0.23932683     0.10200
C2934       C  0.88221340  0.74155332  0.16556117    -0.15800
C2935       C  0.85866078  0.74386161  0.15371899     0.03100
C2936       C  0.84015049  0.76707237  0.15518222    -0.11100
C2937       C  0.84728562  0.78871521  0.16733389    -0.01100
C2938       C  0.87107848  0.78639350  0.17908350    -0.06300
H2939       H  0.89555618  0.72314612  0.16487789     0.06200
H2940       H  0.83359734  0.80680853  0.16853519     0.09500
Br2941     Br  0.86893705  0.74505846  0.22134650    -0.06000
Br2942     Br  0.99630874  0.75105056  0.18872204    -0.02900
Br2943     Br  0.85294668  0.71445333  0.13590079    -0.00100
Br2944     Br  0.87920891  0.81637716  0.19568216    -0.04500
C2945       C  0.74859824  0.67588558  0.08838565    -0.11900
C2946       C  0.76953147  0.67139085  0.07434663     0.03600
C2947       C  0.76872912  0.64898349  0.06176596    -0.12400
C2948       C  0.74785363  0.63042590  0.06304155     0.18500
C2949       C  0.72826674  0.63363490  0.07786203    -0.09500
C2950       C  0.72839780  0.65645813  0.09001779    -0.02400
H2951       H  0.78432411  0.64619660  0.05069879     0.05000
C2952       C  0.74724124  0.60751450  0.04907282     0.20400
H2953       H  0.71233652  0.65912428  0.10068793     0.10200
C2954       C  0.76847263  0.58704608  0.04966755    -0.15800
C2955       C  0.76800922  0.56443054  0.03733114     0.03100
C2956       C  0.74583041  0.56184971  0.02419073    -0.11100
C2957       C  0.72513226  0.58291816  0.02304807    -0.01100
C2958       C  0.72591258  0.60583725  0.03517312    -0.06300
H2959       H  0.78532658  0.58852503  0.05994618     0.06200
H2960       H  0.70818185  0.58137614  0.01286432     0.09500
Br2961     Br  0.70151582  0.60691607  0.08248751    -0.06000
Br2962     Br  0.79934794  0.69502705  0.07064432    -0.02900
Br2963     Br  0.79854176  0.53793612  0.03873020    -0.00100
Br2964     Br  0.69789752  0.63465950  0.03190975    -0.04500
C2965       C  0.74870933  0.84546698  0.08805363    -0.11900
C2966       C  0.73956926  0.84348996  0.06852336     0.03600
C2967       C  0.73528106  0.86715425  0.05714986    -0.12400
C2968       C  0.74006198  0.89300168  0.06472774     0.18500
C2969       C  0.74809184  0.89525701  0.08432180    -0.09500
C2970       C  0.75239738  0.87164079  0.09579181    -0.07200
H2971       H  0.72942615  0.86528072  0.04199575     0.05000
C2972       C  0.73983159  0.91676953  0.05134224     0.20400
H2973       H  0.75917980  0.87374562  0.11072819     0.10200
C2974       C  0.71529264  0.93230287  0.04755155    -0.15800
C2975       C  0.71499465  0.95489788  0.03489200     0.03100
C2976       C  0.73934782  0.96171020  0.02545730    -0.11100
C2977       C  0.76379394  0.94609361  0.02928329    -0.01100
C2978       C  0.76418294  0.92382069  0.04211274    -0.06300
H2979       H  0.69649323  0.92709833  0.05467416     0.06200
H2980       H  0.78281722  0.95171426  0.02267580     0.09500
Br2981     Br  0.75452320  0.93012327  0.09568828    -0.06000
Br2982     Br  0.73533947  0.80932184  0.05556557    -0.02900
Br2983     Br  0.68118472  0.97638719  0.03134784    -0.00100
Br2984     Br  0.79859875  0.90394838  0.04707521    -0.04500
C2985       C  0.74282387  0.56169833  0.97982067    -0.11900
C2986       C  0.72278028  0.56686018  0.96509178     0.03600
C2987       C  0.72429162  0.58953022  0.95277740    -0.12400
C2988       C  0.74464534  0.60857295  0.95527298     0.18500
C2989       C  0.76361745  0.60452033  0.97084404    -0.09500
C2990       C  0.76315342  0.58082752  0.98248070    -0.02400
H2991       H  0.70890167  0.59270067  0.94139698     0.05000
C2992       C  0.74362244  0.63341970  0.94245448     0.20400
H2993       H  0.77852470  0.57758705  0.99385090     0.10200
C2994       C  0.71852942  0.64881968  0.94060789    -0.15800
C2995       C  0.71548630  0.67106308  0.92780542     0.03100
C2996       C  0.73823166  0.67963461  0.91728068    -0.11100
C2997       C  0.76344505  0.66442553  0.91901981    -0.01100
C2998       C  0.76597385  0.64085089  0.93087458    -0.06300
H2999       H  0.70088326  0.64311245  0.94890470     0.06200
H3000       H  0.78080747  0.67012640  0.91042763     0.09500
Br3001     Br  0.78881199  0.63170516  0.97809432    -0.06000
Br3002     Br  0.69141494  0.54503089  0.96194801    -0.02900
Br3003     Br  0.67952073  0.68874128  0.92517094    -0.00100
Br3004     Br  0.79908809  0.61794304  0.92887842    -0.04500
C3005       C  0.74887848  0.84669669  0.91644969    -0.11900
C3006       C  0.76127865  0.87155346  0.91256371     0.03600
C3007       C  0.75944831  0.89298747  0.92604080    -0.12400
C3008       C  0.74532697  0.89026328  0.94356228     0.18500
C3009       C  0.73215545  0.86582308  0.94724892    -0.09500
C3010       C  0.73396836  0.84436881  0.93376050    -0.02400
H3011       H  0.76905460  0.91196814  0.92281970     0.05000
C3012       C  0.74414444  0.91342669  0.95750289     0.20400
H3013       H  0.72445242  0.82539718  0.93715427     0.10200
C3014       C  0.71931330  0.92893362  0.95987121    -0.15800
C3015       C  0.71795401  0.95206159  0.97186895     0.03100
C3016       C  0.74166339  0.95999224  0.98183015    -0.11100
C3017       C  0.76640854  0.94428005  0.97967756    -0.01100
C3018       C  0.76778343  0.92113714  0.96768522    -0.06300
H3019       H  0.70105548  0.92334176  0.95202398     0.06200
H3020       H  0.78489793  0.95043793  0.98695936     0.09500
Br3021     Br  0.71260866  0.86034114  0.97091185    -0.06000
Br3022     Br  0.77951711  0.87812903  0.88869267    -0.02900
Br3023     Br  0.68342932  0.97252554  0.97384677    -0.00100
Br3024     Br  0.80239592  0.90074839  0.96559946    -0.04500
C3025       C  0.51046737  0.55370906  0.67814633    -0.11900
C3026       C  0.52402369  0.57749170  0.67310038     0.03600
C3027       C  0.52173537  0.60040659  0.68493654    -0.12400
C3028       C  0.50599749  0.60019677  0.70177826     0.18500
C3029       C  0.99244889  0.57653190  0.70699651    -0.09500
C3030       C  0.99493767  0.55323314  0.69519680    -0.02400
H3031       H  0.53224231  0.61859992  0.68096757     0.05000
C3032       C  0.50426662  0.62527960  0.71340939     0.20400
H3033       H  0.98428622  0.53508708  0.69903977     0.10200
C3034       C  0.98288068  0.64478278  0.70970305    -0.15800
C3035       C  0.98260605  0.67052742  0.71844064     0.03100
C3036       C  0.50410032  0.67716900  0.73150980    -0.11100
C3037       C  0.52548576  0.65700931  0.73506989    -0.01100
C3038       C  0.52575426  0.63150807  0.72603081    -0.06300
H3039       H  0.96669497  0.64019591  0.69947879     0.06200
H3040       H  0.54251919  0.66043364  0.74463134     0.09500
Br3041     Br  0.97032449  0.57548963  0.72985807    -0.06000
Br3042     Br  0.54651840  0.57991774  0.65043791    -0.02900
Br3043     Br  0.95230311  0.69551773  0.71122256    -0.00100
Br3044     Br  0.55641883  0.60592858  0.73081581    -0.04500
C3045       C  0.00030391  0.77943284  0.72358608    -0.11900
C3046       C  0.97598005  0.79098050  0.71504973     0.03600
C3047       C  0.97708647  0.81355574  0.70254656    -0.12400
C3048       C  0.00240696  0.82390943  0.69730527     0.18500
C3049       C  0.52688414  0.81165160  0.70549900    -0.09500
C3050       C  0.52557307  0.78991758  0.71871702    -0.02400
H3051       H  0.95806746  0.82282938  0.69669195     0.05000
C3052       C  0.00284142  0.84819046  0.68412809     0.20400
H3053       H  0.54445891  0.78046261  0.72469011     0.10200
C3054       C  0.51639790  0.87119820  0.69046249    -0.15800
C3055       C  0.51787125  0.89442230  0.67873224     0.03100
C3056       C  0.00458279  0.89557534  0.66039058    -0.11100
C3057       C  0.99011974  0.87304676  0.65422029    -0.01100
C3058       C  0.98947676  0.84930899  0.66574564    -0.06300
H3059       H  0.52588877  0.87116367  0.70477238     0.06200
H3060       H  0.97974154  0.87371324  0.64020603     0.09500
Br3061     Br  0.56284819  0.82231606  0.69827828    -0.06000
Br3062     Br  0.94102245  0.77561975  0.71900704    -0.02900
Br3063     Br  0.53707260  0.92446441  0.68926819    -0.00100
Br3064     Br  0.97104068  0.81884173  0.65519531    -0.04500
C3065       C  0.66270577  0.75752958  0.84135568    -0.11900
C3066       C  0.64501460  0.73543506  0.84215294     0.03600
C3067       C  0.62165584  0.73535553  0.82998973    -0.12400
C3068       C  0.61544032  0.75678543  0.81677898     0.18500
C3069       C  0.63246932  0.77913571  0.81631239    -0.09500
C3070       C  0.65562768  0.77946447  0.82855545    -0.02400
H3071       H  0.60859839  0.71808742  0.83048947     0.05000
C3072       C  0.59219557  0.75452262  0.80279203     0.20400
H3073       H  0.66865801  0.79669951  0.82753945     0.10200
C3074       C  0.56493176  0.75936611  0.80895208    -0.15800
C3075       C  0.54260477  0.75512766  0.79637900     0.03100
C3076       C  0.54743105  0.74572972  0.77726352    -0.11100
C3077       C  0.57481616  0.74189950  0.77100819    -0.01100
C3078       C  0.59699776  0.74605826  0.78353965    -0.06300
H3079       H  0.56100851  0.76578470  0.82376962     0.06200
H3080       H  0.57901035  0.73472133  0.75639437     0.09500
Br3081     Br  0.62528312  0.80931442  0.79874889    -0.06000
Br3082     Br  0.65119097  0.70471573  0.85940505    -0.02900
Br3083     Br  0.50625197  0.76019364  0.80669613    -0.00100
Br3084     Br  0.63353972  0.73823571  0.77406522    -0.04500
C3085       C  0.95051778  0.74265242  0.77449930    -0.11900
C3086       C  0.94070703  0.72444421  0.78854244     0.03600
C3087       C  0.91568968  0.73055369  0.79775441    -0.12400
C3088       C  0.89996785  0.75463771  0.79337592     0.18500
C3089       C  0.91018237  0.77343558  0.78003054    -0.09500
C3090       C  0.93546707  0.76749406  0.77089052    -0.02400
H3091       H  0.90849634  0.71647758  0.80855087     0.05000
C3092       C  0.87433783  0.76045172  0.80440556     0.20400
H3093       H  0.94303737  0.78204858  0.76063613     0.10200
C3094       C  0.87673352  0.76787343  0.82391686    -0.15800
C3095       C  0.85364235  0.77066708  0.83576841     0.03100
C3096       C  0.82717184  0.76586148  0.82813497    -0.11100
C3097       C  0.82466297  0.75925631  0.80834488    -0.01100
C3098       C  0.84805371  0.75624490  0.79653638    -0.06300
H3099       H  0.89688279  0.77114838  0.83005777     0.06200
H3100       H  0.80461269  0.75560212  0.80220685     0.09500
Br3101     Br  0.89037348  0.80737225  0.77394763    -0.06000
Br3102     Br  0.96127668  0.69173064  0.79680221    -0.02900
Br3103     Br  0.86007280  0.78211998  0.86207475    -0.00100
Br3104     Br  0.84345361  0.74497316  0.77010255    -0.04500
C3105       C  0.81766557  0.00729088  0.72720166    -0.11900
C3106       C  0.81638993  0.99790933  0.70785465     0.03600
C3107       C  0.84079321  0.99252438  0.69750674    -0.12400
C3108       C  0.86659184  0.99612091  0.70615110     0.18500
C3109       C  0.86809078  0.50504849  0.72557508    -0.09500
C3110       C  0.84386132  0.51022028  0.73594128    -0.02400
H3111       H  0.83964870  0.98606970  0.68248276     0.05000
C3112       C  0.89179631  0.99247934  0.69436153     0.20400
H3113       H  0.84534577  0.51704620  0.75086359     0.10200
C3114       C  0.89811978  0.51335299  0.68090871    -0.15800
C3115       C  0.92178882  0.51066045  0.66949603     0.03100
C3116       C  0.93942203  0.98672651  0.67126666    -0.11100
C3117       C  0.93380940  0.96681536  0.68529412    -0.01100
C3118       C  0.91015804  0.96946528  0.69671373    -0.06300
H3119       H  0.88453973  0.53152540  0.67940385     0.06200
H3120       H  0.94744082  0.94870358  0.68699075     0.09500
Br3121     Br  0.90246552  0.51130711  0.73827732    -0.06000
Br3122     Br  0.78230025  0.99404277  0.69424690    -0.02900
Br3123     Br  0.92943856  0.54035267  0.65237178    -0.00100
Br3124     Br  0.90323609  0.94075031  0.71484553    -0.04500
C3125       C  0.72050043  0.01487605  0.72242480    -0.11900
C3126       C  0.71571269  0.53218680  0.70589758     0.03600
C3127       C  0.69325010  0.52800957  0.69353933    -0.12400
C3128       C  0.67468989  0.00712358  0.69751633     0.18500
C3129       C  0.67999170  0.98980283  0.71376649    -0.09500
C3130       C  0.70292419  0.99354536  0.72587623    -0.02400
H3131       H  0.68975367  0.54124889  0.68099366     0.05000
C3132       C  0.64984018  0.00464389  0.68480725     0.20400
H3133       H  0.70634330  0.98050939  0.73854141     0.10200
C3134       C  0.64655099  0.98068335  0.67395184    -0.15800
C3135       C  0.62294149  0.97748544  0.66237441     0.03100
C3136       C  0.60215550  0.49894755  0.66135716    -0.11100
C3137       C  0.60590959  0.52317204  0.67185049    -0.01100
C3138       C  0.62934990  0.52628937  0.68345824    -0.06300
H3139       H  0.66241041  0.96428995  0.67456999     0.06200
H3140       H  0.58998651  0.53950169  0.67167141     0.09500
Br3141     Br  0.65527909  0.96224277  0.72094537    -0.06000
Br3142     Br  0.73905677  0.56139624  0.69967412    -0.02900
Br3143     Br  0.62101965  0.94418985  0.64785315    -0.00100
Br3144     Br  0.63116895  0.55942239  0.69821939    -0.04500
C3145       C  0.75823163  0.69250337  0.83317824    -0.11900
C3146       C  0.77600827  0.66995413  0.83882819     0.03600
C3147       C  0.77794913  0.64642258  0.82719678    -0.12400
C3148       C  0.76275050  0.64498482  0.80982426     0.18500
C3149       C  0.74569029  0.66764860  0.80393660    -0.09500
C3150       C  0.74354394  0.69100444  0.81552949    -0.02400
H3151       H  0.79138194  0.62913509  0.83171322     0.05000
C3152       C  0.76462600  0.61977217  0.79794964     0.20400
H3153       H  0.72978440  0.70791811  0.81079709     0.10200
C3154       C  0.74173966  0.60371006  0.79641891    -0.15800
C3155       C  0.74221338  0.58039867  0.78464941     0.03100
C3156       C  0.76594763  0.57286563  0.77354864    -0.11100
C3157       C  0.78912512  0.58893423  0.77576754    -0.01100
C3158       C  0.78860539  0.61196376  0.78777269    -0.06300
H3159       H  0.72333237  0.60934892  0.80454009     0.06200
H3160       H  0.80839419  0.58369948  0.76876505     0.09500
Br3161     Br  0.72520813  0.66788882  0.77995337    -0.06000
Br3162     Br  0.79900106  0.67020020  0.86166483    -0.02900
Br3163     Br  0.70977155  0.55952636  0.78522037    -0.00100
Br3164     Br  0.82118985  0.63235333  0.78962647    -0.04500
C3165       C  0.76440745  0.97047816  0.77511153    -0.11900
C3166       C  0.78270820  0.94747877  0.77218988     0.03600
C3167       C  0.78161224  0.92449022  0.78439587    -0.12400
C3168       C  0.76287514  0.92408276  0.79979350     0.18500
C3169       C  0.74495590  0.94719583  0.80287743    -0.09500
C3170       C  0.74545422  0.96972234  0.79038610    -0.02400
H3171       H  0.79585902  0.90704025  0.78212783     0.05000
C3172       C  0.76298329  0.89987879  0.81289887     0.20400
H3173       H  0.73148407  0.98725991  0.79306783     0.10200
C3174       C  0.78680576  0.89221754  0.82367001    -0.15800
C3175       C  0.78763898  0.86952469  0.83626725     0.03100
C3176       C  0.76372923  0.85454052  0.83887148    -0.11100
C3177       C  0.74001753  0.86238346  0.82782661    -0.01100
C3178       C  0.73974342  0.88416230  0.81463370    -0.06300
H3179       H  0.80502547  0.90383513  0.82209061     0.06200
H3180       H  0.72168686  0.85081775  0.82876920     0.09500
Br3181     Br  0.72101087  0.95021597  0.82489227    -0.06000
Br3182     Br  0.81132685  0.94691048  0.75321884    -0.02900
Br3183     Br  0.82248931  0.86008523  0.84858489    -0.00100
Br3184     Br  0.70783732  0.89010148  0.79818857    -0.04500
C3185       C  0.67340497  0.76144249  0.07946491    -0.11900
C3186       C  0.64636421  0.75949077  0.08671931     0.03600
C3187       C  0.62378373  0.76149160  0.07397520    -0.12400
C3188       C  0.62736177  0.76521146  0.05401031     0.18500
C3189       C  0.65408810  0.76692341  0.04669343    -0.09500
C3190       C  0.67681926  0.76464495  0.05933282    -0.02400
H3191       H  0.60324203  0.75971469  0.07964028     0.05000
C3192       C  0.60280196  0.76654703  0.04117076     0.20400
H3193       H  0.69723172  0.76544293  0.05334961     0.10200
C3194       C  0.58784215  0.79163302  0.03859392    -0.15800
C3195       C  0.56290848  0.79301057  0.02822599     0.03100
C3196       C  0.55274184  0.76905686  0.02017154    -0.11100
C3197       C  0.56813149  0.74411677  0.02224946    -0.01100
C3198       C  0.59289744  0.74268583  0.03280615    -0.06300
H3199       H  0.59526426  0.81005183  0.04507214     0.06200
H3200       H  0.56037357  0.72556940  0.01619019     0.09500
Br3201     Br  0.66043873  0.77268350  0.01961726    -0.06000
Br3202     Br  0.63840798  0.75192022  0.11349019    -0.02900
Br3203     Br  0.54319014  0.82787191  0.02561729    -0.00100
Br3204     Br  0.61180159  0.70756913  0.03637601    -0.04500
C3205       C  0.82387834  0.76653306  0.07634676    -0.11900
C3206       C  0.82630056  0.76473219  0.05585130     0.03600
C3207       C  0.85216325  0.76590458  0.04725382    -0.12400
C3208       C  0.87585153  0.76898849  0.05853889     0.18500
C3209       C  0.87366211  0.77105470  0.07880350    -0.09500
C3210       C  0.84792734  0.76975775  0.08752909    -0.02400
H3211       H  0.85386372  0.76434541  0.03159658     0.05000
C3212       C  0.90269488  0.76917241  0.04878310     0.20400
H3213       H  0.84685305  0.77131534  0.10320679     0.10200
C3214       C  0.91264938  0.79410118  0.04250681    -0.15800
C3215       C  0.93692618  0.79451716  0.03177573     0.03100
C3216       C  0.95132867  0.76973090  0.02709960    -0.11100
C3217       C  0.94186953  0.74491754  0.03395359    -0.01100
C3218       C  0.91765252  0.74448820  0.04468336    -0.06300
H3219       H  0.90125660  0.81318461  0.04567903     0.06200
H3220       H  0.95306698  0.72579583  0.03060177     0.09500
Br3221     Br  0.90530065  0.77553753  0.09508371    -0.06000
Br3222     Br  0.79571883  0.76117744  0.03834834    -0.02900
Br3223     Br  0.94956954  0.82917345  0.02352270    -0.00100
Br3224     Br  0.90524203  0.70978709  0.05304520    -0.04500
C3225       C  0.54633837  0.76633116  0.97737057    -0.11900
C3226       C  0.55470738  0.74250820  0.96707921     0.03600
C3227       C  0.57803840  0.74248359  0.95532753    -0.12400
C3228       C  0.59353986  0.76581366  0.95402985     0.18500
C3229       C  0.58524929  0.78954152  0.96438025    -0.09500
C3230       C  0.56158623  0.78978597  0.97573269    -0.02400
H3231       H  0.58473740  0.72393024  0.94778366     0.05000
C3232       C  0.61989380  0.76427864  0.94358914     0.20400
H3233       H  0.55539841  0.80813333  0.98366021     0.10200
C3234       C  0.62181103  0.77642976  0.92518396    -0.15800
C3235       C  0.64708578  0.77633271  0.91556043     0.03100
C3236       C  0.67095422  0.76431120  0.92461515    -0.11100
C3237       C  0.66891710  0.75278774  0.94323857    -0.01100
C3238       C  0.64358728  0.75211808  0.95250078    -0.06300
H3239       H  0.60365112  0.78619026  0.91838995     0.06200
H3240       H  0.68697379  0.74329023  0.95034543     0.09500
Br3241     Br  0.60677744  0.82132350  0.96451141    -0.06000
Br3242     Br  0.53626882  0.70900043  0.96991522    -0.02900
Br3243     Br  0.64802891  0.79448130  0.89080594    -0.00100
Br3244     Br  0.64212837  0.73401216  0.97721784    -0.04500
C3245       C  0.94490823  0.76520885  0.98467979    -0.11900
C3246       C  0.93372396  0.73978966  0.98085218     0.03600
C3247       C  0.90843470  0.73884515  0.97108858    -0.12400
C3248       C  0.89401309  0.76301695  0.96493511     0.18500
C3249       C  0.90480106  0.78850859  0.96936348    -0.09500
C3250       C  0.93015831  0.78941298  0.97907053    -0.02400
H3251       H  0.90029281  0.71915294  0.96783344     0.05000
C3252       C  0.86888790  0.76115576  0.95274726     0.20400
H3253       H  0.93867407  0.80904998  0.98189721     0.10200
C3254       C  0.84308571  0.76981461  0.96008716    -0.15800
C3255       C  0.81922904  0.76955693  0.94845719     0.03100
C3256       C  0.82103194  0.76055423  0.92891223    -0.11100
C3257       C  0.84692946  0.75090174  0.92199624    -0.01100
C3258       C  0.87058213  0.75117117  0.93363387    -0.06300
H3259       H  0.84157812  0.77717279  0.97489479     0.06200
H3260       H  0.84910578  0.74375812  0.90718052     0.09500
Br3261     Br  0.88642056  0.82254704  0.96159415    -0.06000
Br3262     Br  0.95271141  0.70588926  0.98815842    -0.02900
Br3263     Br  0.78537120  0.78231577  0.96032373    -0.00100
Br3264     Br  0.90503475  0.73910468  0.92230198    -0.04500
C3265       C  0.78663962  0.99160708  0.28051825    -0.11900
C3266       C  0.78573317  0.50325442  0.29925325     0.03600
C3267       C  0.80737997  0.49795683  0.31259733    -0.12400
C3268       C  0.83054155  0.98214486  0.30744696     0.18500
C3269       C  0.83162468  0.97013283  0.28881658    -0.09500
C3270       C  0.80965106  0.97465790  0.27568292    -0.02400
H3271       H  0.80608548  0.50698704  0.32692900     0.05000
C3272       C  0.85453519  0.97945796  0.32112338     0.20400
H3273       H  0.81102735  0.96575079  0.26135052     0.10200
C3274       C  0.86403063  0.95351319  0.32805643    -0.15800
C3275       C  0.88841882  0.95004381  0.33916244     0.03100
C3276       C  0.90382643  0.97300739  0.34375334    -0.11100
C3277       C  0.89307048  0.49877413  0.33839259    -0.01100
C3278       C  0.86916352  0.50219887  0.32702653    -0.06300
H3279       H  0.85281584  0.93568891  0.32427772     0.06200
H3280       H  0.90367072  0.51696287  0.34220685     0.09500
Br3281     Br  0.86359840  0.94936048  0.27989623    -0.06000
Br3282     Br  0.75527210  0.52720926  0.30685592    -0.02900
Br3283     Br  0.89961279  0.91329298  0.34678651    -0.00100
Br3284     Br  0.85827149  0.53874457  0.31862060    -0.04500
C3285       C  0.69092358  0.99087023  0.27354900    -0.11900
C3286       C  0.66435767  0.49266670  0.26537579     0.03600
C3287       C  0.64154614  0.48905476  0.27714548    -0.12400
C3288       C  0.64481745  0.98385043  0.29721913     0.18500
C3289       C  0.67162010  0.98008089  0.30503423    -0.09500
C3290       C  0.69442939  0.98364105  0.29319403    -0.02400
H3291       H  0.62106264  0.49092103  0.27081302     0.05000
C3292       C  0.62011748  0.98284123  0.30951605     0.20400
H3293       H  0.71490687  0.98148344  0.29948445     0.10200
C3294       C  0.60235709  0.96141959  0.30708736    -0.15800
C3295       C  0.57816750  0.96057159  0.31788726     0.03100
C3296       C  0.57150474  0.98127912  0.33145694    -0.11100
C3297       C  0.58732513  0.50473418  0.33149748    -0.01100
C3298       C  0.61137197  0.50559577  0.32058118    -0.06300
H3299       H  0.60730725  0.94535667  0.29668012     0.06200
H3300       H  0.58077107  0.52239406  0.34009999     0.09500
Br3301     Br  0.67797211  0.96995588  0.33171920    -0.06000
Br3302     Br  0.65760062  0.49842798  0.23806796    -0.02900
Br3303     Br  0.55548220  0.93055106  0.31370191    -0.00100
Br3304     Br  0.63121006  0.53850006  0.32102740    -0.04500
C3305       C  0.74429607  0.66522233  0.16175156    -0.11900
C3306       C  0.72510628  0.64481813  0.15911270     0.03600
C3307       C  0.72661174  0.62132888  0.17089940    -0.12400
C3308       C  0.74614438  0.61822750  0.18599830     0.18500
C3309       C  0.76518356  0.63857205  0.18872151    -0.09500
C3310       C  0.76447729  0.66145493  0.17645234    -0.02400
H3311       H  0.71180017  0.60579985  0.16874271     0.05000
C3312       C  0.74515728  0.59462898  0.19953733     0.20400
H3313       H  0.77891701  0.67716508  0.17917911     0.10200
C3314       C  0.76707336  0.57490730  0.20043613    -0.15800
C3315       C  0.76670482  0.55256105  0.21326802     0.03100
C3316       C  0.74377935  0.54929325  0.22563274    -0.11100
C3317       C  0.72205953  0.56966893  0.22459986    -0.01100
C3318       C  0.72259862  0.59189297  0.21182382    -0.06300
H3319       H  0.78462098  0.57691614  0.19104340     0.06200
H3320       H  0.70415064  0.56912785  0.23361969     0.09500
Br3321     Br  0.79080985  0.63740924  0.21011795    -0.06000
Br3322     Br  0.69606414  0.64780619  0.14010021    -0.02900
Br3323     Br  0.79837142  0.52734787  0.21278406    -0.00100
Br3324     Br  0.69219822  0.61862182  0.21221111    -0.04500
C3325       C  0.73963602  0.82652119  0.17307192    -0.11900
C3326       C  0.73896428  0.82361092  0.19353365     0.03600
C3327       C  0.73698315  0.84694486  0.20527464    -0.12400
C3328       C  0.73544534  0.87318406  0.19698044     0.18500
C3329       C  0.73426628  0.87611900  0.17667411    -0.09500
C3330       C  0.73619517  0.85293364  0.16490637    -0.02400
H3331       H  0.73752087  0.84465350  0.22094234     0.05000
C3332       C  0.73783193  0.89732519  0.20948799     0.20400
H3333       H  0.73639349  0.85576349  0.14928434     0.10200
C3334       C  0.76329197  0.90937766  0.21061532    -0.15800
C3335       C  0.76601344  0.93381153  0.22070074     0.03100
C3336       C  0.74313597  0.94620178  0.23018818    -0.11100
C3337       C  0.71790743  0.93355532  0.22975164    -0.01100
C3338       C  0.71504789  0.90934780  0.21928537    -0.06300
H3339       H  0.78089556  0.90016050  0.20307460     0.06200
H3340       H  0.70011299  0.94320850  0.23681009     0.09500
Br3341     Br  0.73130283  0.91152022  0.16442024    -0.06000
Br3342     Br  0.74056963  0.78866162  0.20646060    -0.02900
Br3343     Br  0.80113557  0.94977278  0.22065990    -0.00100
Br3344     Br  0.67943278  0.89447347  0.21750838    -0.04500
loop_ 
_geom_bond_atom_site_label_1 
_geom_bond_atom_site_label_2 
_geom_bond_distance 
_geom_bond_site_symmetry_2 
_ccdc_geom_bond_type 
C1            C2   1.538   1_545  S
C1            C7   1.540       .  S
C1            C5   1.549       .  S
C1          C808   1.543       .  S
C2          H845   1.086       .  S
C2          C839   1.363       .  D
C3            C4   1.534       .  S
C3          C838   1.363       .  D
C3          C828   1.474       .  S
C4            C8   1.542       .  S
C4            C6   1.535       .  S
C4           H10   1.111       .  S
C5           H11   1.080       .  S
C5          C842   1.364   1_545  D
C6          C841   1.365       .  D
C6          C777   1.485       .  S
C7           H12   1.086       .  S
C7          C844   1.367   1_545  D
C8          C843   1.367       .  D
C8          C757   1.483       .  S
H9          C838   1.087       .  S
C13          C14   1.411   1_556  A
C13        C1690   1.402       .  A
C13         C737   1.481       .  S
C14        C1687   1.402       .  A
C14         C708   1.477       .  S
C15          C16   1.404       .  A
C15        C1686   1.402   1_455  A
C15          H20   1.085       .  S
C16          C17   1.413   1_554  A
C16         C688   1.482       .  S
C17          C18   1.404   1_455  A
C17         C717   1.480       .  S
C18        C1685   1.402       .  A
C18          H19   1.085       .  S
C21          C22   1.542       .  S
C21          C25   1.538       .  S
C21         C863   1.529       .  S
C21         C648   1.540       .  S
C22          H29   1.082       .  S
C22         C859   1.367       .  D
C23          C24   1.547       .  S
C23         C858   1.367       .  D
C23         C597   1.490       .  S
C24          C28   1.544       .  S
C24          C26   1.548       .  S
C24          H30   1.109       .  S
C25          H31   1.086       .  S
C25         C862   1.368       .  D
C26         C861   1.367       .  D
C26         C617   1.490       .  S
C27         C857   1.530       .  S
C27          H32   1.087       .  S
C27          C28   1.364       .  D
C28         C657   1.490       .  S
C33          C34   1.532       .  S
C33          C37   1.546       .  S
C33        C1711   1.530   1_455  S
C33         C528   1.534       .  S
C34          H41   1.087       .  S
C34          C35   1.361       .  D
C35          C36   1.544   1_455  S
C35        C2209   1.476       .  S
C36          C38   1.546   1_655  S
C36        C1712   1.547       .  S
C36        H1714   1.110       .  S
C37          H43   1.080       .  S
C37          C38   1.368       .  D
C38         C568   1.494       .  S
C39        C1705   1.530       .  S
C39          H44   1.086       .  S
C39          C40   1.363       .  D
C40        C1708   1.547       .  S
C40         C577   1.488       .  S
H42        C1708   1.110       .  S
C45          C46   1.412   1_556  A
C45         C886   1.406       .  A
C45         C508   1.486       .  S
C46         C883   1.401       .  A
C46         C468   1.482       .  S
C47          C48   1.407       .  A
C47         C882   1.401   1_545  A
C47          H52   1.084       .  S
C48          C49   1.420   1_554  A
C48         C448   1.485       .  S
C49          C50   1.410       .  A
C49         C477   1.498       .  S
C50         C881   1.405   1_545  A
C50          H51   1.084       .  S
O53          C61   1.269       .  A
O53         Co73   1.973       .  S
O54          C62   1.259       .  A
O54         Co74   1.979       .  S
O55          C63   1.272       .  A
O55         Co75   2.034       .  S
O56          C64   1.294       .  A
O56         Co76   2.099       .  S
O57          C63   1.259       .  A
O57         Co74   1.956       .  S
O58          C64   1.266       .  A
O58         Co73   1.895       .  S
O59          C62   1.265       .  A
O59         Co76   2.019       .  S
O60          C61   1.281       .  A
O60         Co75   2.039       .  S
C61         C497   1.487       .  S
C62         C557   1.498       .  S
C63         C668   1.494       .  S
C64         C728   1.477       .  S
O65          C78   1.296       .  A
O65         Co73   2.110       .  S
O66          C79   1.275       .  A
O66         Co74   2.041       .  S
O67          C80   1.256       .  A
O67         Co75   1.975       .  S
O68          C81   1.267       .  A
O68         Co76   1.972       .  S
O69          C81   1.278       .  A
O69         Co74   2.018       .  S
O70          C80   1.260       .  A
O70         Co73   2.011       .  S
O71          C78   1.265       .  A
O71         Co76   1.903       .  S
O72          C79   1.257       .  A
O72         Co75   1.955       .  S
Co73         O77   2.021       .  S
Co74         O77   2.037       .  S
Co75         O77   2.030       .  S
Co76         O77   2.012       .  S
C78         C488   1.482       .  S
C79         C588   1.484       .  S
C80         C748   1.494       .  S
C81         C637   1.486       .  S
O82          C90   1.268       .  A
O82        Co102   2.027       .  S
O83          C91   1.281       .  A
O83        Co103   2.029       .  S
O84          C92   1.262       .  A
O84        Co104   1.962       .  S
O85          C93   1.265       .  A
O85        Co105   1.896       .  S
O86          C92   1.273       .  A
O86        Co103   2.027       .  S
O87          C93   1.295       .  A
O87        Co102   2.099       .  S
O88          C91   1.267       .  A
O88        Co105   1.966       .  S
O89          C90   1.256       .  A
O89        Co104   1.967       .  S
C90         C428   1.486       .  S
C91         C437   1.489       .  S
C92         C797   1.485       .  S
C93         C697   1.490       .  S
O94         C107   1.268       .  A
O94        Co102   1.898       .  S
O95         C108   1.262       .  A
O95        Co103   1.962       .  S
O96         C109   1.277       .  A
O96        Co104   2.026       .  S
O97         C110   1.265       .  A
O97        Co105   2.017       .  S
O98         C110   1.255       .  A
O98        Co103   1.970       .  S
O99         C109   1.267       .  A
O99        Co102   1.962       .  S
O100        C107   1.295       .  A
O100       Co105   2.104       .  S
O101        C108   1.271       .  A
O101       Co104   2.018       .  S
Co102       O106   2.005       .  S
Co103       O106   2.021       .  S
Co104       O106   2.021       .  S
Co105       O106   2.004       .  S
C107        C457   1.486       .  S
C108        C408   1.478       .  S
C109        C817   1.483       .  S
C110        C677   1.487       .  S
O111        C119   1.274   1_545  A
O111       Co131   2.030       .  S
O112        C120   1.295       .  A
O112       Co132   2.098       .  S
O113       C1793   1.257       .  A
O113       Co133   1.968       .  S
O114        C958   1.267       .  A
O114       Co134   1.966       .  S
O115        C121   1.266       .  A
O115       Co132   2.017       .  S
O116        C122   1.279   1_545  A
O116       Co131   2.022       .  S
O117       C1792   1.268       .  A
O117       Co134   1.896       .  S
O118        C955   1.265       .  A
O118       Co133   1.979       .  S
C119        C628   1.496       .  S
C119        O954   1.265       .  A
C120        C388   1.479       .  S
C120       O1789   1.268       .  A
C121        C548   1.478       .  S
C121       O1785   1.257       .  A
C122       C1153   1.486       .  S
C122        O950   1.267       .  A
O123        C136   1.253   1_655  A
O123       Co131   1.969   1_655  S
O124        C137   1.269       .  A
O124       Co132   1.970       .  S
O125       C1810   1.271       .  A
O125      Co2641   2.025   1_545  S
O126        C139   1.294       .  A
O126      Co1806   2.101       .  S
O127        C139   1.267       .  A
O127       Co132   1.908       .  S
O128        C138   1.255       .  A
O128       Co131   1.948       .  S
O129       C1808   1.267       .  A
O129      Co2642   2.029   1_545  S
O130        C137   1.278       .  A
O130      Co1805   2.028       .  S
Co131       O971   2.013   1_545  S
Co132      O1807   2.008       .  S
Co133      O2633   2.023       .  S
Co133      O1802   2.028   1_455  S
Co133       O135   2.043       .  S
Co134      O1798   2.101   1_455  S
Co134      O2637   2.029       .  S
Co134       O135   2.018       .  S
O135       Co967   2.013       .  S
O135      Co1804   2.008   1_455  S
C136        C357   1.497       .  S
C136       O1801   1.267       .  A
C137        C608   1.479       .  S
C138        C517   1.462       .  S
C138       O1797   1.271       .  A
C139        C348   1.495       .  S
O140        C148   1.282       .  A
O140       Co160   2.042   1_455  S
O141       C1821   1.267   1_655  A
O141       Co161   2.020       .  S
O142        C986   1.266   1_545  A
O142       Co162   1.908       .  S
O143        C151   1.259       .  A
O143       Co163   1.955       .  S
O144        C150   1.291       .  A
O144       Co161   2.092   1_455  S
O145       C1823   1.272       .  A
O145       Co160   2.033       .  S
O146        C149   1.260       .  A
O146       Co163   1.977       .  S
O147        C984   1.268       .  A
O147       Co162   1.963   1_565  S
C148        C788   1.474       .  S
C148        O983   1.268       .  A
C149        C268   1.493       .  S
C149       O1813   1.267       .  A
C150        C288   1.475       .  S
C150        O978   1.266       .  A
C151        C197   1.495       .  S
C151       O1817   1.272       .  A
O152        C165   1.258       .  A
O152      Co1832   1.954       .  S
O153        C166   1.268       .  A
O153       Co997   1.905   1_445  S
O154        C167   1.262       .  A
O154       Co162   2.028       .  S
O155        C168   1.273       .  A
O155       Co163   2.011       .  S
O156        C168   1.267       .  A
O156      Co1833   1.975       .  S
O157        C167   1.249   1_655  A
O157       Co996   1.964   1_545  S
O158        C165   1.277       .  A
O158       Co163   2.050       .  S
O159        C166   1.293       .  A
O159       Co162   2.092       .  S
Co160      O1824   1.954       .  S
Co160       O993   1.965       .  S
Co160       O164   2.021       .  S
Co161       O989   1.904   1_655  S
Co161      O1828   1.975       .  S
Co161       O164   2.015       .  S
Co162      O1000   2.030   1_445  S
Co163      O1836   2.037       .  S
O164       Co998   2.029   1_655  S
O164      Co1835   2.037       .  S
C165        C768   1.501       .  S
C166        C237   1.478       .  S
C167        C217   1.487       .  S
C168        C297   1.474       .  S
C169        C170   1.413       .  A
C169        C174   1.406       .  A
C169        C377   1.480       .  S
C170        C171   1.404       .  A
C170        C257   1.489       .  S
C171        C172   1.407       .  A
C171        H176   1.084       .  S
C172        C173   1.418       .  A
C172       C1920   1.484       .  S
C173        C174   1.406       .  A
C173        C368   1.493       .  S
C174        H175   1.084       .  S
C177        C178   1.415       .  A
C177        C182   1.401       .  A
C177        C337   1.493       .  S
C178        C179   1.404       .  A
C178        C308   1.481       .  S
C179        C180   1.404       .  A
C179        H184   1.083       .  S
C180        C181   1.419       .  A
C180        C277   1.497       .  S
C181        C182   1.408       .  A
C181        C328   1.481       .  S
C182        H183   1.084       .  S
C185        C191   1.544       .  S
C185        C189   1.538   1_655  S
C185       C1858   1.539       .  S
C185        C228   1.546       .  S
C186       C1857   1.539       .  S
C186        H193   1.086       .  S
C186        C187   1.373       .  D
C187        C188   1.545       .  S
C187        C417   1.500       .  S
C188        C192   1.540       .  S
C188       C1862   1.543       .  S
C188        H194   1.105       .  S
C189        H195   1.082       .  S
C189        C190   1.354       .  D
C190       C1860   1.543       .  S
C190        C397   1.473       .  S
C191        H196   1.085       .  S
C191       C1864   1.374   1_655  D
C192       C1863   1.374       .  D
C192        C208   1.499       .  S
C197        C198   1.419       .  A
C197       C1874   1.410       .  A
C198        C199   1.406       .  A
C198       Br214   1.921       .  S
C199        C200   1.402       .  A
C199        H203   1.084       .  S
C200       C1873   1.404       .  A
C200        C204   1.480       .  S
C201        C202   1.396       .  A
C201       C1872   1.404   1_455  A
C201       Br213   1.920       .  S
C202       C1869   1.410   1_455  A
C202        H205   1.083       .  S
C204        C210   1.404       .  A
C204       C1878   1.399       .  A
C206        C207   1.403       .  A
C206       C1876   1.399   1_455  A
C206        H211   1.084       .  S
C207       C1880   1.422   1_455  A
C207       Br215   1.917       .  S
C208        C209   1.408       .  A
C208       C1879   1.422       .  A
C209        C210   1.398       .  A
C209        H212   1.083       .  S
C210       Br216   1.917       .  S
C217        C218   1.420   1_455  A
C217        C222   1.406       .  A
C218        C219   1.398       .  A
C218       Br234   1.924       .  S
C219        C220   1.397       .  A
C219        H223   1.084       .  S
C220        C221   1.410   1_655  A
C220        C224   1.483       .  S
C221        C222   1.406       .  A
C221       Br233   1.917       .  S
C222        H225   1.084       .  S
C224        C230   1.401   1_655  A
C224       C1898   1.402       .  A
C226        C227   1.407       .  A
C226       C1896   1.402       .  A
C226        H231   1.083       .  S
C227       C1900   1.421       .  A
C227       Br235   1.922       .  S
C228        C229   1.416   1_655  A
C228       C1899   1.421       .  A
C229        C230   1.397       .  A
C229        H232   1.076       .  S
C230       Br236   1.921       .  S
C237        C242   1.404       .  A
C237       C1910   1.412   1_455  A
C238        C239   1.402       .  A
C238       C1909   1.412       .  A
C238       Br254   1.920       .  S
C239       C1912   1.403       .  A
C239        H243   1.083       .  S
C240        C241   1.408       .  A
C240       C1911   1.403   1_455  A
C240        C244   1.480       .  S
C241        C242   1.399       .  A
C241       Br253   1.918       .  S
C242        H245   1.084       .  S
C244        C250   1.408       .  A
C244       C1918   1.403   1_455  A
C246        C247   1.400       .  A
C246       C1916   1.403       .  A
C246        H251   1.083       .  S
C247       C1920   1.409       .  A
C247       Br255   1.918       .  S
C248        C249   1.404   1_655  A
C248       C1919   1.409       .  A
C248       C1844   1.484   1_655  S
C249        C250   1.399       .  A
C249        H252   1.083       .  S
C250       Br256   1.919       .  S
C257        C258   1.409       .  A
C257       C1934   1.404       .  A
C258        C259   1.403       .  A
C258       Br274   1.916       .  S
C259        C260   1.404       .  A
C259        H263   1.083       .  S
C260       C1933   1.408       .  A
C260        C264   1.485       .  S
C261        C262   1.403       .  A
C261       C1932   1.408       .  A
C261       Br273   1.916       .  S
C262       C1929   1.404       .  A
C262        H265   1.083       .  S
C264        C266   1.405       .  A
C264       C1942   1.405       .  A
C266        C267   1.408       .  A
C266        H271   1.083       .  S
C267        C268   1.416       .  A
C267       Br275   1.919       .  S
C268       C1941   1.409       .  A
C269        C270   1.397       .  A
C269       C1940   1.409       .  A
C269        H272   1.083       .  S
C270       C1936   1.405       .  A
C270       Br276   1.919       .  S
C277        C282   1.408       .  A
C277       C1114   1.415       .  A
C278        C279   1.397       .  A
C278       C1113   1.415   1_545  A
C278       Br294   1.923       .  S
C279       C1116   1.402   1_545  A
C279        H283   1.083       .  S
C280        C281   1.410       .  A
C280       C1115   1.401       .  A
C280        C284   1.488       .  S
C281        C282   1.405       .  A
C281       Br293   1.918       .  S
C282        H285   1.082       .  S
C284        C286   1.407       .  A
C284       C1126   1.410       .  A
C286        C287   1.405       .  A
C286        H291   1.083       .  S
C287        C288   1.408       .  A
C287       Br295   1.919       .  S
C288       C1125   1.402       .  A
C289        C290   1.398       .  A
C289       C1124   1.402   1_545  A
C289        H292   1.083       .  S
C290       C1120   1.411   1_545  A
C290       Br296   1.920       .  S
C297        C298   1.414       .  A
C297       C1138   1.404       .  A
C298        C299   1.393       .  A
C298       Br314   1.920       .  S
C299        C300   1.399       .  A
C299        H303   1.084       .  S
C300       C1137   1.411       .  A
C300        C304   1.478       .  S
C301        C302   1.401   1_545  A
C301       C1136   1.411   1_545  A
C301       Br313   1.919       .  S
C302       C1133   1.403       .  A
C302        H305   1.084   1_565  S
C304        C310   1.409       .  A
C304       C1142   1.402       .  A
C306        C307   1.397       .  A
C306       C1140   1.402   1_545  A
C306        H311   1.084       .  S
C307       C1144   1.409   1_545  A
C307       Br315   1.917       .  S
C308        C309   1.404       .  A
C308       C1143   1.409       .  A
C309        C310   1.396       .  A
C309        H312   1.084       .  S
C310       Br316   1.921       .  S
C317        C318   1.418       .  A
C317       C1158   1.409       .  A
C317        C958   1.486       .  S
C318        C319   1.396       .  A
C318       Br334   1.920       .  S
C319        C320   1.400       .  A
C319        H323   1.084       .  S
C320       C1157   1.407       .  A
C320        C324   1.479       .  S
C321        C322   1.399       .  A
C321       C1156   1.407   1_545  A
C321       Br333   1.919       .  S
C322       C1153   1.409   1_545  A
C322        H325   1.083       .  S
C324        C330   1.407       .  A
C324       C1162   1.406       .  A
C326        C327   1.403       .  A
C326       C1160   1.406   1_545  A
C326        H331   1.083       .  S
C327       C1164   1.410   1_545  A
C327       Br335   1.918       .  S
C328        C329   1.403       .  A
C328       C1163   1.410       .  A
C329        C330   1.392       .  A
C329        H332   1.083       .  S
C330       Br336   1.920       .  S
C337        C338   1.413       .  A
C337       C1178   1.406       .  A
C338        C339   1.405       .  A
C338       Br354   1.918       .  S
C339        C340   1.404       .  A
C339        H343   1.083       .  S
C340        C341   1.406       .  A
C340        C344   1.484       .  S
C341       C1178   1.400       .  A
C341      Br1189   1.918       .  S
C342       C1173   1.406   1_545  A
C342       C1177   1.400       .  A
C342        H345   1.083       .  S
C344        C350   1.407       .  A
C344       C1182   1.399       .  A
C346        C347   1.402       .  A
C346       C1180   1.399       .  A
C346        H351   1.084       .  S
C347       C1184   1.420       .  A
C347       Br355   1.918       .  S
C348        C349   1.409       .  A
C348       C1183   1.420       .  A
C349        C350   1.404       .  A
C349        H352   1.083       .  S
C350       Br356   1.917       .  S
Br353      C1177   1.918       .  S
C357        C362   1.407       .  A
C357       C2030   1.423   1_455  A
C358        C359   1.400       .  A
C358       C2029   1.423       .  A
C358       Br374   1.922       .  S
C359       C2032   1.400       .  A
C359        H363   1.084       .  S
C360        C361   1.409   1_655  A
C360       C2031   1.400       .  A
C360        C364   1.491       .  S
C361        C362   1.404       .  A
C361       Br373   1.912       .  S
C362        H365   1.083       .  S
C364        C366   1.405   1_655  A
C364       C2042   1.411       .  A
C366        C367   1.404       .  A
C366        H371   1.083       .  S
C367       C2040   1.411   1_455  A
C367       Br375   1.917       .  S
C368        C369   1.404       .  A
C368       C2039   1.411       .  A
C369        C370   1.402       .  A
C369        H372   1.083       .  S
C370       C2036   1.411       .  A
C370       Br376   1.919       .  S
C377        C378   1.408       .  A
C377       C2054   1.403       .  A
C378        C379   1.399       .  A
C378       Br394   1.917       .  S
C379        C380   1.403       .  A
C379        H383   1.083       .  S
C380       C2053   1.407       .  A
C380        C384   1.478       .  S
C381        C382   1.399       .  A
C381       C2052   1.407       .  A
C381       Br393   1.918       .  S
C382       C2049   1.403       .  A
C382        H385   1.083       .  S
C384        C386   1.402       .  A
C384        C390   1.407       .  A
C386        C387   1.400       .  A
C386        H391   1.083       .  S
C387        C388   1.413       .  A
C387       Br395   1.919       .  S
C388        C389   1.405       .  A
C389        C390   1.398       .  A
C389        H392   1.084       .  S
C390      Br2068   1.920       .  S
Br396      C2062   1.920       .  S
C397        C398   1.412       .  A
C397        C402   1.399       .  A
C398        C399   1.397       .  A
C398       Br414   1.922       .  S
C399        C400   1.399       .  A
C399        H403   1.083       .  S
C400        C401   1.408       .  A
C400        C404   1.470       .  S
C401        C402   1.396       .  A
C401       Br413   1.920       .  S
C402        H405   1.081       .  S
C404        C406   1.398       .  A
C404        C410   1.404       .  A
C406        C407   1.398       .  A
C406        H411   1.084       .  S
C407        C408   1.417       .  A
C407       Br415   1.922       .  S
C408        C409   1.407       .  A
C409        C410   1.396       .  A
C409        H412   1.084       .  S
C410       Br416   1.920       .  S
C417        C418   1.417       .  A
C417        C422   1.408       .  A
C418        C419   1.404       .  A
C418       Br434   1.912       .  S
C419        C420   1.400       .  A
C419        H423   1.084       .  S
C420        C421   1.408       .  A
C420        C424   1.485       .  S
C421        C422   1.402       .  A
C421       Br433   1.919       .  S
C422        H425   1.084       .  S
C424        C426   1.400       .  A
C424        C430   1.409       .  A
C426        C427   1.399       .  A
C426        H431   1.083       .  S
C427        C428   1.415       .  A
C427       Br435   1.922       .  S
C428        C429   1.407       .  A
C429        C430   1.405       .  A
C429        H432   1.083       .  S
C430       Br436   1.917       .  S
C437        C438   1.420       .  A
C437        C442   1.407       .  A
C438        C439   1.400       .  A
C438       Br454   1.919       .  S
C439        C440   1.400       .  A
C439        H443   1.084       .  S
C440        C441   1.406       .  A
C440        C444   1.480       .  S
C441        C442   1.397       .  A
C441       Br453   1.919       .  S
C442        H445   1.081       .  S
C444        C446   1.400       .  A
C444        C450   1.411       .  A
C446        C447   1.397       .  A
C446        H451   1.084       .  S
C447        C448   1.413       .  A
C447       Br455   1.920       .  S
C448        C449   1.403       .  A
C449        C450   1.401       .  A
C449        H452   1.083       .  S
C450       Br456   1.919       .  S
C457        C458   1.417       .  A
C457        C462   1.407       .  A
C458        C459   1.399       .  A
C458       Br474   1.915       .  S
C459        C460   1.398       .  A
C459        H463   1.084       .  S
C460        C461   1.407       .  A
C460        C464   1.479       .  S
C461        C462   1.401       .  A
C461       Br473   1.917       .  S
C462        H465   1.084       .  S
C464        C466   1.403       .  A
C464        C470   1.408       .  A
C466        C467   1.403       .  A
C466        H471   1.083       .  S
C467        C468   1.411       .  A
C467       Br475   1.918       .  S
C468        C469   1.402       .  A
C469        C470   1.399       .  A
C469        H472   1.083       .  S
C470       Br476   1.918       .  S
C477        C478   1.413       .  A
C477        C482   1.408       .  A
C478        C479   1.398       .  A
C478       Br494   1.919       .  S
C479        C480   1.404       .  A
C479        H483   1.084       .  S
C480        C481   1.414       .  A
C480        C484   1.496       .  S
C481        C482   1.407       .  A
C481       Br493   1.919       .  S
C482        H485   1.083       .  S
C484        C486   1.404       .  A
C484        C490   1.416       .  A
C486        C487   1.397       .  A
C486        H491   1.084       .  S
C487        C488   1.409       .  A
C487       Br495   1.917       .  S
C488        C489   1.405       .  A
C489        C490   1.409       .  A
C489        H492   1.083       .  S
C490       Br496   1.919       .  S
C497        C498   1.410       .  A
C497        C502   1.408       .  A
C498        C499   1.402       .  A
C498       Br514   1.908       .  S
C499        C500   1.402       .  A
C499        H503   1.084       .  S
C500        C501   1.408       .  A
C500        C504   1.486       .  S
C501        C502   1.403       .  A
C501       Br513   1.918       .  S
C502        H505   1.084       .  S
C504        C506   1.403       .  A
C504        C510   1.410       .  A
C506        C507   1.401       .  A
C506        H511   1.083       .  S
C507        C508   1.409       .  A
C507       Br515   1.915       .  S
C508        C509   1.403       .  A
C509        C510   1.402       .  A
C509        H512   1.083       .  S
C510       Br516   1.918       .  S
C517        C518   1.410       .  A
C517       C2194   1.402   1_455  A
C518        C519   1.388       .  A
C518       Br534   1.920       .  S
C519        C520   1.395       .  A
C519        H523   1.084       .  S
C520       C2193   1.408   1_455  A
C520        C524   1.467       .  S
C521        C522   1.402       .  A
C521       C2192   1.408       .  A
C521       Br533   1.916       .  S
C522       C2189   1.402       .  A
C522        H525   1.084       .  S
C524        C530   1.400       .  A
C524       C2198   1.395   1_455  A
C526        C527   1.396       .  A
C526       C2196   1.395       .  A
C526        H531   1.084       .  S
C527       C2200   1.424       .  A
C527       Br535   1.925       .  S
C528        C529   1.414       .  A
C528       C2199   1.424   1_455  A
C529        C530   1.395       .  A
C529        H532   1.074       .  S
C530       Br536   1.921       .  S
C537       C1707   1.476       .  S
C537        C538   1.407       .  A
C537       C2214   1.400       .  A
C538        C539   1.400       .  A
C538       Br554   1.916       .  S
C539        C540   1.406       .  A
C539        H543   1.083       .  S
C540       C2213   1.416       .  A
C540        C544   1.492       .  S
C541        C542   1.400       .  A
C541       C2212   1.416       .  A
C541       Br553   1.921       .  S
C542       C2209   1.400       .  A
C542        H545   1.084       .  S
C544        C550   1.417       .  A
C544       C2218   1.402       .  A
C546        C547   1.396       .  A
C546       C2216   1.402       .  A
C546        H551   1.084       .  S
C547       C2220   1.412       .  A
C547       Br555   1.922       .  S
C548        C549   1.402       .  A
C548       C2219   1.412       .  A
C549        C550   1.404       .  A
C549        H552   1.084       .  S
C550       Br556   1.920       .  S
C557        C558   1.417       .  A
C557        C562   1.412       .  A
C558        C559   1.406       .  A
C558       Br574   1.920       .  S
C559        C560   1.403       .  A
C559        H563   1.083       .  S
C560        C561   1.405       .  A
C560        C564   1.487       .  S
C561        C562   1.402       .  A
C561       Br573   1.919       .  S
C562        H565   1.083       .  S
C564        C566   1.405       .  A
C564        C570   1.407       .  A
C566        C567   1.407       .  A
C566        H571   1.084       .  S
C567        C568   1.412       .  A
C567       Br575   1.916       .  S
C568        C569   1.407       .  A
C569        C570   1.399       .  A
C569        H572   1.084       .  S
C570       Br576   1.919       .  S
C577        C578   1.414       .  A
C577        C582   1.405       .  A
C578        C579   1.396       .  A
C578       Br594   1.922       .  S
C579        C580   1.400       .  A
C579        H583   1.083       .  S
C580        C581   1.408       .  A
C580        C584   1.480       .  S
C581        C582   1.404       .  A
C581       Br593   1.917       .  S
C582        H585   1.081       .  S
C584        C586   1.397       .  A
C584        C590   1.410       .  A
C586        C587   1.395       .  A
C586        H591   1.084       .  S
C587        C588   1.418       .  A
C587       Br595   1.924       .  S
C588        C589   1.406       .  A
C589        C590   1.406       .  A
C589        H592   1.083       .  S
C590       Br596   1.917       .  S
C597        C598   1.412       .  A
C597       C1438   1.408       .  A
C598        C599   1.403       .  A
C598       Br614   1.916       .  S
C599        C600   1.404       .  A
C599        H603   1.084       .  S
C600       C1437   1.405       .  A
C600        C604   1.479       .  S
C601        C602   1.396       .  A
C601       C1436   1.405   1_545  A
C601       Br613   1.920       .  S
C602       C1433   1.408       .  A
C602        H605   1.084       .  S
C604        C610   1.407       .  A
C604       C1442   1.403       .  A
C606        C607   1.401       .  A
C606       C1440   1.403   1_545  A
C606        H611   1.083       .  S
C607       C1444   1.410   1_545  A
C607       Br615   1.920       .  S
C608        C609   1.406       .  A
C608       C1443   1.410       .  A
C609        C610   1.400       .  A
C609        H612   1.083       .  S
C610       Br616   1.919       .  S
C617        C622   1.404       .  A
C617       C1454   1.412       .  A
C618        C619   1.403       .  A
C618       C1453   1.412       .  A
C618       Br634   1.920       .  S
C619       C1456   1.405       .  A
C619        H623   1.084       .  S
C620        C621   1.413       .  A
C620       C1455   1.405       .  A
C620        C624   1.495       .  S
C621        C622   1.406       .  A
C621       Br633   1.918       .  S
C622        H625   1.084       .  S
C624        C626   1.407       .  A
C624       C1466   1.410       .  A
C626        C627   1.408       .  A
C626        H631   1.083       .  S
C627       C1464   1.414       .  A
C627       Br635   1.919       .  S
C628        C629   1.408   1_565  A
C628       C1463   1.415       .  A
C629        C630   1.402       .  A
C629        H632   1.083       .  S
C630       C1460   1.411       .  A
C630       Br636   1.920       .  S
C637        C638   1.416       .  A
C637        C642   1.407       .  A
C638        C639   1.404       .  A
C638       Br654   1.921       .  S
C639        C640   1.404       .  A
C639        H643   1.083       .  S
C640        C641   1.405       .  A
C640        C644   1.480       .  S
C641        C642   1.395       .  A
C641       Br653   1.920       .  S
C642        H645   1.083       .  S
C644        C646   1.399       .  A
C644        C650   1.403       .  A
C646        C647   1.400       .  A
C646        H651   1.084       .  S
C647        C648   1.424       .  A
C647       Br655   1.925       .  S
C648        C649   1.415       .  A
C649        C650   1.398       .  A
C649        H652   1.077       .  S
C650       Br656   1.920       .  S
C657        C658   1.413       .  A
C657        C662   1.406       .  A
C658        C659   1.404       .  A
C658       Br674   1.917       .  S
C659        C660   1.405       .  A
C659        H663   1.083       .  S
C660        C661   1.408       .  A
C660        C664   1.484       .  S
C661        C662   1.396       .  A
C661       Br673   1.921       .  S
C662        H665   1.083       .  S
C664        C666   1.403       .  A
C664        C670   1.406       .  A
C666        C667   1.403       .  A
C666        H671   1.084       .  S
C667        C668   1.419       .  A
C667       Br675   1.922       .  S
C668        C669   1.411       .  A
C669        C670   1.396       .  A
C669        H672   1.083       .  S
C670       Br676   1.922       .  S
C677        C678   1.419       .  A
C677        C682   1.406       .  A
C678        C679   1.399       .  A
C678       Br694   1.924       .  S
C679        C680   1.399       .  A
C679        H683   1.084       .  S
C680        C681   1.406       .  A
C680        C684   1.479       .  S
C681        C682   1.401       .  A
C681       Br693   1.913       .  S
C682        H685   1.081       .  S
C684        C686   1.402       .  A
C684        C690   1.408       .  A
C686        C687   1.401       .  A
C686        H691   1.083       .  S
C687        C688   1.408       .  A
C687       Br695   1.918       .  S
C688        C689   1.403       .  A
C689        C690   1.400       .  A
C689        H692   1.083       .  S
C690       Br696   1.918       .  S
C697        C698   1.419       .  A
C697        C702   1.411       .  A
C698        C699   1.400       .  A
C698       Br714   1.922       .  S
C699        C700   1.399       .  A
C699        H703   1.084       .  S
C700        C701   1.403       .  A
C700        C704   1.476       .  S
C701        C702   1.399       .  A
C701       Br713   1.918       .  S
C702        H705   1.083       .  S
C704        C706   1.403       .  A
C704        C710   1.407       .  A
C706        C707   1.400       .  A
C706        H711   1.084       .  S
C707        C708   1.407       .  A
C707       Br715   1.918       .  S
C708        C709   1.401       .  A
C709        C710   1.398       .  A
C709        H712   1.083       .  S
C710       Br716   1.918       .  S
C717        C718   1.408       .  A
C717        C722   1.403       .  A
C718        C719   1.399       .  A
C718       Br734   1.918       .  S
C719        C720   1.403       .  A
C719        H723   1.083       .  S
C720        C721   1.406       .  A
C720        C724   1.475       .  S
C721        C722   1.398       .  A
C721       Br733   1.919       .  S
C722        H725   1.082       .  S
C724        C726   1.403       .  A
C724        C730   1.404       .  A
C726        C727   1.402       .  A
C726        H731   1.083       .  S
C727        C728   1.413       .  A
C727       Br735   1.920       .  S
C728        C729   1.404       .  A
C729        C730   1.395       .  A
C729        H732   1.084       .  S
C730       Br736   1.918       .  S
C737        C738   1.407       .  A
C737        C742   1.402       .  A
C738        C739   1.400       .  A
C738       Br754   1.917       .  S
C739        C740   1.404       .  A
C739        H743   1.083       .  S
C740        C741   1.411       .  A
C740        C744   1.485       .  S
C741        C742   1.401       .  A
C741       Br753   1.919       .  S
C742        H745   1.083       .  S
C744        C746   1.403       .  A
C744        C750   1.407       .  A
C746        C747   1.405       .  A
C746        H751   1.084       .  S
C747        C748   1.419       .  A
C747       Br755   1.921       .  S
C748        C749   1.409       .  A
C749        C750   1.397       .  A
C749        H752   1.083       .  S
C750       Br756   1.921       .  S
C757        C762   1.401       .  A
C757       C1594   1.407       .  A
C758        C759   1.404   1_545  A
C758       C1593   1.407   1_545  A
C758       Br774   1.918       .  S
C759       C1596   1.408       .  A
C759        H763   1.083   1_565  S
C760        C761   1.413       .  A
C760       C1595   1.408       .  A
C760        C764   1.494       .  S
C761        C762   1.402       .  A
C761       Br773   1.920       .  S
C762        H765   1.081       .  S
C764        C766   1.407       .  A
C764       C1606   1.408       .  A
C766        C767   1.408       .  A
C766        H771   1.083       .  S
C767        C768   1.417       .  A
C767       Br775   1.919       .  S
C768       C1605   1.413       .  A
C769        C770   1.398   1_565  A
C769       C1604   1.413       .  A
C769        H772   1.083   1_565  S
C770       C1600   1.407   1_545  A
C770       Br776   1.922       .  S
C777        C782   1.403       .  A
C777       C1614   1.414       .  A
C778        C779   1.397       .  A
C778       C1613   1.414       .  A
C778       Br794   1.922       .  S
C779       C1616   1.400       .  A
C779        H783   1.084       .  S
C780        C781   1.408       .  A
C780       C1615   1.400       .  A
C780        C784   1.478       .  S
C781        C782   1.401       .  A
C781       Br793   1.917       .  S
C782        H785   1.082       .  S
C784        C786   1.402       .  A
C784       C1626   1.408       .  A
C786        C787   1.401       .  A
C786        H791   1.084       .  S
C787        C788   1.407       .  A
C787       Br795   1.905       .  S
C788       C1625   1.403       .  A
C789        C790   1.399       .  A
C789       C1624   1.403   1_545  A
C789        H792   1.084       .  S
C790       C1620   1.408   1_545  A
C790       Br796   1.919       .  S
C797        C798   1.413       .  A
C797        C802   1.408       .  A
C798        C799   1.401       .  A
C798       Br814   1.917       .  S
C799        C800   1.404       .  A
C799        H803   1.084       .  S
C800        C801   1.406       .  A
C800        C804   1.483       .  S
C801        C802   1.398       .  A
C801       Br813   1.920       .  S
C802        H805   1.083       .  S
C804        C806   1.400       .  A
C804        C810   1.403       .  A
C806        C807   1.403       .  A
C806        H811   1.084       .  S
C807        C808   1.424       .  A
C807       Br815   1.922       .  S
C808        C809   1.415       .  A
C809        C810   1.396       .  A
C809        H812   1.074       .  S
C810       Br816   1.922       .  S
C817        C818   1.416       .  A
C817        C822   1.408       .  A
C818        C819   1.400       .  A
C818       Br834   1.921       .  S
C819        C820   1.400       .  A
C819        H823   1.083       .  S
C820        C821   1.405       .  A
C820        C824   1.473       .  S
C821        C822   1.396       .  A
C821       Br833   1.920       .  S
C822        H825   1.083       .  S
C824        C826   1.401       .  A
C824        C830   1.406       .  A
C826        C827   1.396       .  A
C826        H831   1.084       .  S
C827        C828   1.407       .  A
C827       Br835   1.916       .  S
C828        C829   1.403       .  A
C829        C830   1.400       .  A
C829        H832   1.084       .  S
C830       Br836   1.917       .  S
C837        C838   1.538       .  S
C837        C843   1.540       .  S
C837        C841   1.549       .  S
C837       C1644   1.544       .  S
C839        C840   1.533       .  S
C839       C1664   1.472       .  S
C840        C844   1.541       .  S
C840        C842   1.535       .  S
C840        H846   1.111       .  S
C841        H847   1.081       .  S
C842       C1613   1.483       .  S
C843        H848   1.086       .  S
C844       C1593   1.483       .  S
C849        C850   1.411   1_556  A
C849       C2526   1.402       .  A
C849       C1573   1.481       .  S
C850       C2523   1.401       .  A
C850       C1544   1.476       .  S
C851       C2522   1.401   1_455  A
C851        C852   1.403       .  A
C851        H856   1.085       .  S
C852        C853   1.413   1_554  A
C852       C1524   1.481       .  S
C853        C854   1.404   1_455  A
C853       C1553   1.480       .  S
C854       C2521   1.402       .  A
C854        H855   1.085       .  S
C857        C858   1.541       .  S
C857        C861   1.538       .  S
C857       C1484   1.540       .  S
C858        H865   1.082       .  S
C859        C860   1.547       .  S
C859       C1433   1.491       .  S
C860        C864   1.544   1_545  S
C860        C862   1.548       .  S
C860        H866   1.109   1_545  S
C861        H867   1.086       .  S
C862       C1453   1.491       .  S
C863        H868   1.087       .  S
C863        C864   1.363   1_545  D
C864       C1493   1.490       .  S
C869        C870   1.532       .  S
C869       C2547   1.529   1_455  S
C869        C873   1.546       .  S
C869       C1364   1.533       .  S
C870        H877   1.087       .  S
C870        C871   1.361       .  D
C871        C872   1.545   1_455  S
C871       C3045   1.477       .  S
C872       C2548   1.547       .  S
C872        C874   1.547   1_655  S
C872       H2550   1.110       .  S
C873        H879   1.080       .  S
C873        C874   1.367       .  D
C874       C1404   1.495       .  S
C875       C2541   1.529       .  S
C875        H880   1.086       .  S
C875        C876   1.363       .  D
C876       C2544   1.547       .  S
C876       C1413   1.488       .  S
H878       C2544   1.110       .  S
C881        C882   1.412   1_556  A
C881       C1344   1.485       .  S
C882       C1304   1.483       .  S
C883        C884   1.406       .  A
C883        H888   1.084       .  S
C884        C885   1.420   1_554  A
C884       C1284   1.485       .  S
C885        C886   1.410       .  A
C885       C1313   1.498       .  S
C886        H887   1.084       .  S
O889        C897   1.269       .  A
O889       Co909   1.972       .  S
O890        C898   1.259       .  A
O890       Co910   1.979       .  S
O891        C899   1.272       .  A
O891       Co911   2.034       .  S
O892        C900   1.294       .  A
O892       Co912   2.099       .  S
O893        C899   1.259       .  A
O893       Co910   1.956       .  S
O894        C900   1.266       .  A
O894       Co909   1.895       .  S
O895        C898   1.265       .  A
O895       Co912   2.018       .  S
O896        C897   1.281       .  A
O896       Co911   2.039       .  S
C897       C1333   1.487       .  S
C898       C1393   1.497       .  S
C899       C1504   1.495       .  S
C900       C1564   1.476       .  S
O901        C914   1.296       .  A
O901       Co909   2.110       .  S
O902        C915   1.275       .  A
O902       Co910   2.042       .  S
O903        C916   1.255       .  A
O903       Co911   1.974       .  S
O904        C917   1.267       .  A
O904       Co912   1.972       .  S
O905        C917   1.277       .  A
O905       Co910   2.018       .  S
O906        C916   1.260       .  A
O906       Co909   2.011       .  S
O907        C914   1.265       .  A
O907       Co912   1.903       .  S
O908        C915   1.257       .  A
O908       Co911   1.955       .  S
Co909       O913   2.021       .  S
Co910       O913   2.037       .  S
Co911       O913   2.030       .  S
Co912       O913   2.012       .  S
C914       C1324   1.482       .  S
C915       C1424   1.485       .  S
C916       C1584   1.493       .  S
C917       C1473   1.486       .  S
O918        C926   1.268       .  A
O918       Co938   2.028       .  S
O919        C927   1.281       .  A
O919       Co939   2.028       .  S
O920        C928   1.262       .  A
O920       Co940   1.961       .  S
O921        C929   1.265       .  A
O921       Co941   1.897       .  S
O922        C928   1.273       .  A
O922       Co939   2.028       .  S
O923        C929   1.294       .  A
O923       Co938   2.097       .  S
O924        C927   1.267       .  A
O924       Co941   1.966       .  S
O925        C926   1.256       .  A
O925       Co940   1.967       .  S
C926       C1264   1.486       .  S
C927       C1273   1.489       .  S
C928       C1633   1.485       .  S
C929       C1533   1.489       .  S
O930        C943   1.268       .  A
O930       Co938   1.899       .  S
O931        C944   1.262       .  A
O931       Co939   1.962       .  S
O932        C945   1.277       .  A
O932       Co940   2.025       .  S
O933        C946   1.265       .  A
O933       Co941   2.017       .  S
O934        C946   1.255       .  A
O934       Co939   1.970       .  S
O935        C945   1.266       .  A
O935       Co938   1.960       .  S
O936        C943   1.295       .  A
O936       Co941   2.103       .  S
O937        C944   1.271       .  A
O937       Co940   2.019       .  S
Co938       O942   2.004       .  S
Co939       O942   2.020       .  S
Co940       O942   2.020       .  S
Co941       O942   2.004       .  S
C943       C1293   1.487       .  S
C944       C1244   1.479       .  S
C945       C1653   1.481       .  S
C946       C1513   1.486       .  S
O947        C955   1.274       .  A
O947       Co967   2.030       .  S
O948        C956   1.295       .  A
O948       Co968   2.098       .  S
O949       C2629   1.257       .  A
O949       Co969   1.969       .  S
O950       Co970   1.966       .  S
O951        C957   1.266       .  A
O951       Co968   2.017       .  S
O952        C958   1.279       .  A
O952       Co967   2.023       .  S
O953       C2628   1.268       .  A
O953       Co970   1.896       .  S
O954       Co969   1.979       .  S
C955       C1464   1.495       .  S
C956       C1224   1.478       .  S
C956       O2625   1.268       .  A
C957       C1384   1.479       .  S
C957       O2621   1.257       .  A
O959        C972   1.253   1_655  A
O959       Co967   1.969   1_655  S
O960        C973   1.269       .  A
O960       Co968   1.970       .  S
O961       C2646   1.271       .  A
O961      Co1805   2.023       .  S
O962        C975   1.294       .  A
O962      Co2642   2.101       .  S
O963        C975   1.267       .  A
O963       Co968   1.908       .  S
O964        C974   1.255       .  A
O964       Co967   1.948       .  S
O965       C2644   1.267       .  A
O965      Co1806   2.029       .  S
O966        C973   1.278       .  A
O966      Co2641   2.028       .  S
Co968      O2643   2.008       .  S
Co969      O1797   2.025   1_565  S
Co969      O2638   2.028   1_455  S
Co969       O971   2.044       .  S
Co970      O2634   2.101   1_455  S
Co970      O1801   2.029   1_565  S
Co970       O971   2.019       .  S
O971      Co2640   2.008   1_455  S
C972       C1193   1.497       .  S
C972       O2637   1.267       .  A
C973       C1444   1.480       .  S
C974       C1353   1.460       .  S
C974       O2633   1.271       .  A
C975       C1184   1.494       .  S
O976        C984   1.283       .  A
O976       Co996   2.043   1_455  S
O977       C2657   1.267   1_655  A
O977       Co997   2.020       .  S
O978       Co998   1.908       .  S
O979        C987   1.259       .  A
O979       Co999   1.954       .  S
O980        C986   1.291       .  A
O980       Co997   2.092   1_455  S
O981       C2659   1.272       .  A
O981       Co996   2.032       .  S
O982        C985   1.260       .  A
O982       Co999   1.976       .  S
O983       Co998   1.965       .  S
C984       C1624   1.475       .  S
C985       C1104   1.492       .  S
C985       O2649   1.267       .  A
C986       C1124   1.476       .  S
C987       C1033   1.494       .  S
C987       O2653   1.272       .  A
O988       C1001   1.258       .  A
O988      Co2668   1.954       .  S
O989       C1002   1.268       .  A
O990       C1003   1.263       .  A
O990       Co998   2.028       .  S
O991       C1004   1.272       .  A
O991       Co999   2.009       .  S
O992       C1004   1.266       .  A
O992      Co2669   1.974       .  S
O993       C1003   1.249   1_655  A
O994       C1001   1.277       .  A
O994       Co999   2.049       .  S
O995       C1002   1.294       .  A
O995       Co998   2.093       .  S
Co996      O2660   1.954       .  S
Co996      O1000   2.021       .  S
Co997      O2664   1.974       .  S
Co997      O1000   2.016       .  S
Co999      O2672   2.036       .  S
O1000     Co2671   2.036       .  S
C1001      C1604   1.501       .  S
C1002      C1073   1.477       .  S
C1003      C1053   1.489       .  S
C1004      C1133   1.473       .  S
C1005      C1006   1.413       .  A
C1005      C1010   1.406       .  A
C1005      C1213   1.480       .  S
C1006      C1007   1.404       .  A
C1006      C1093   1.489       .  S
C1007      C1008   1.408       .  A
C1007      H1012   1.084       .  S
C1008      C1009   1.419       .  A
C1008      C2756   1.483       .  S
C1009      C1010   1.406       .  A
C1009      C1204   1.493       .  S
C1010      H1011   1.084       .  S
C1013      C1014   1.415       .  A
C1013      C1018   1.401       .  A
C1013      C1173   1.493       .  S
C1014      C1015   1.404       .  A
C1014      C1144   1.480       .  S
C1015      C1016   1.404       .  A
C1015      H1020   1.083       .  S
C1016      C1017   1.419       .  A
C1016      C1113   1.497       .  S
C1017      C1018   1.408       .  A
C1017      C1164   1.481       .  S
C1018      H1019   1.084       .  S
C1021      C2694   1.539       .  S
C1021      C1027   1.544       .  S
C1021      C1025   1.538   1_655  S
C1021      C1064   1.547       .  S
C1022      C2693   1.539       .  S
C1022      H1029   1.086       .  S
C1022      C1023   1.374       .  D
C1023      C1024   1.546       .  S
C1023      C1253   1.501       .  S
C1024      C1028   1.539       .  S
C1024      C2698   1.543       .  S
C1024      H1030   1.106       .  S
C1025      H1031   1.083       .  S
C1025      C1026   1.354       .  D
C1026      C2696   1.543       .  S
C1026      C1233   1.474       .  S
C1027      H1032   1.085       .  S
C1027      C2700   1.374   1_655  D
C1028      C2699   1.374       .  D
C1028      C1044   1.498       .  S
C1033      C1034   1.419       .  A
C1033      C2710   1.410       .  A
C1034      C1035   1.405       .  A
C1034     Br1050   1.921       .  S
C1035      C1036   1.402       .  A
C1035      H1039   1.084       .  S
C1036      C2709   1.404       .  A
C1036      C1040   1.479       .  S
C1037      C2708   1.404   1_455  A
C1037      C1038   1.396       .  A
C1037     Br1049   1.920       .  S
C1038      C2705   1.410   1_455  A
C1038      H1041   1.083       .  S
C1040      C2714   1.399       .  A
C1040      C1046   1.404       .  A
C1042      C2712   1.399   1_455  A
C1042      C1043   1.403       .  A
C1042      H1047   1.084       .  S
C1043      C2716   1.422   1_455  A
C1043     Br1051   1.916       .  S
C1044      C2715   1.422       .  A
C1044      C1045   1.408       .  A
C1045      C1046   1.397       .  A
C1045      H1048   1.083       .  S
C1046     Br1052   1.917       .  S
C1053      C1054   1.420   1_455  A
C1053      C1058   1.406       .  A
C1054      C1055   1.398       .  A
C1054     Br1070   1.924       .  S
C1055      C1056   1.397       .  A
C1055      H1059   1.084       .  S
C1056      C1057   1.410   1_655  A
C1056      C1060   1.484       .  S
C1057      C1058   1.406       .  A
C1057     Br1069   1.917       .  S
C1058      H1061   1.084       .  S
C1060      C2734   1.402       .  A
C1060      C1066   1.402   1_655  A
C1062      C2732   1.402       .  A
C1062      C1063   1.407       .  A
C1062      H1067   1.083       .  S
C1063      C2736   1.421       .  A
C1063     Br1071   1.922       .  S
C1064      C2735   1.421       .  A
C1064      C1065   1.417   1_655  A
C1065      C1066   1.397       .  A
C1065      H1068   1.077       .  S
C1066     Br1072   1.921       .  S
C1073      C2746   1.411   1_455  A
C1073      C1078   1.404       .  A
C1074      C2745   1.411       .  A
C1074      C1075   1.402       .  A
C1074     Br1090   1.920       .  S
C1075      C2748   1.403       .  A
C1075      H1079   1.083       .  S
C1076      C2747   1.403   1_455  A
C1076      C1077   1.408       .  A
C1076      C1080   1.480       .  S
C1077      C1078   1.398       .  A
C1077     Br1089   1.918       .  S
C1078      H1081   1.084       .  S
C1080      C2754   1.403   1_455  A
C1080      C1086   1.408       .  A
C1082      C2752   1.403       .  A
C1082      C1083   1.400       .  A
C1082      H1087   1.083       .  S
C1083      C2756   1.409       .  A
C1083     Br1091   1.918       .  S
C1084      C2755   1.409       .  A
C1084      C1085   1.404   1_655  A
C1084      C2680   1.483   1_655  S
C1085      C1086   1.399       .  A
C1085      H1088   1.083       .  S
C1086     Br1092   1.919       .  S
C1093      C1094   1.409       .  A
C1093      C2770   1.404       .  A
C1094      C1095   1.402       .  A
C1094     Br1110   1.916       .  S
C1095      C1096   1.404       .  A
C1095      H1099   1.083       .  S
C1096      C2769   1.408       .  A
C1096      C1100   1.485       .  S
C1097      C2768   1.408       .  A
C1097      C1098   1.403       .  A
C1097     Br1109   1.917       .  S
C1098      C2765   1.404       .  A
C1098      H1101   1.083       .  S
C1100      C1102   1.405       .  A
C1100      C2778   1.405       .  A
C1102      C1103   1.408       .  A
C1102      H1107   1.083       .  S
C1103      C1104   1.416       .  A
C1103     Br1111   1.919       .  S
C1104      C2777   1.408       .  A
C1105      C2776   1.408       .  A
C1105      C1106   1.397       .  A
C1105      H1108   1.083       .  S
C1106      C2772   1.405       .  A
C1106     Br1112   1.919       .  S
C1113      C1118   1.408       .  A
C1114      C1115   1.397       .  A
C1114     Br1130   1.923       .  S
C1115      H1119   1.083       .  S
C1116      C1117   1.411       .  A
C1116      C1120   1.489       .  S
C1117      C1118   1.406       .  A
C1117     Br1129   1.918       .  S
C1118      H1121   1.082       .  S
C1120      C1122   1.407       .  A
C1122      C1123   1.406       .  A
C1122      H1127   1.083       .  S
C1123      C1124   1.409       .  A
C1123     Br1131   1.919       .  S
C1125      C1126   1.398       .  A
C1125      H1128   1.083       .  S
C1126     Br1132   1.920       .  S
C1133      C1134   1.413       .  A
C1134      C1135   1.392       .  A
C1134     Br1150   1.921       .  S
C1135      C1136   1.399       .  A
C1135      H1139   1.084       .  S
C1136      C1140   1.478       .  S
C1137      C1138   1.401       .  A
C1137     Br1149   1.919       .  S
C1138      H1141   1.084       .  S
C1140      C1146   1.409       .  A
C1142      C1143   1.397       .  A
C1142      H1147   1.084       .  S
C1143     Br1151   1.917       .  S
C1144      C1145   1.404       .  A
C1145      C1146   1.395       .  A
C1145      H1148   1.084       .  S
C1146     Br1152   1.921       .  S
C1153      C1154   1.418       .  A
C1154      C1155   1.396       .  A
C1154     Br1170   1.920       .  S
C1155      C1156   1.400       .  A
C1155      H1159   1.084       .  S
C1156      C1160   1.479       .  S
C1157      C1158   1.399       .  A
C1157     Br1169   1.919       .  S
C1158      H1161   1.083       .  S
C1160      C1166   1.407       .  A
C1162      C1163   1.403       .  A
C1162      H1167   1.083       .  S
C1163     Br1171   1.918       .  S
C1164      C1165   1.403       .  A
C1165      C1166   1.392       .  A
C1165      H1168   1.083       .  S
C1166     Br1172   1.920       .  S
C1173      C1174   1.413       .  A
C1174      C1175   1.405       .  A
C1174     Br1190   1.918       .  S
C1175      C1176   1.404       .  A
C1175      H1179   1.083       .  S
C1176      C1177   1.406   1_565  A
C1176      C1180   1.484       .  S
C1178      H1181   1.083       .  S
C1180      C1186   1.407       .  A
C1182      C1183   1.402       .  A
C1182      H1187   1.084       .  S
C1183     Br1191   1.918       .  S
C1184      C1185   1.409       .  A
C1185      C1186   1.403       .  A
C1185      H1188   1.083       .  S
C1186     Br1192   1.917       .  S
C1193      C2866   1.423   1_455  A
C1193      C1198   1.407       .  A
C1194      C2865   1.423       .  A
C1194      C1195   1.401       .  A
C1194     Br1210   1.923       .  S
C1195      C2868   1.400       .  A
C1195      H1199   1.084       .  S
C1196      C2867   1.400       .  A
C1196      C1197   1.409   1_655  A
C1196      C1200   1.492       .  S
C1197      C1198   1.404       .  A
C1197     Br1209   1.912       .  S
C1198      H1201   1.083       .  S
C1200      C1202   1.406   1_655  A
C1200      C2878   1.411       .  A
C1202      C1203   1.404       .  A
C1202      H1207   1.083       .  S
C1203      C2876   1.411   1_455  A
C1203     Br1211   1.917       .  S
C1204      C2875   1.411       .  A
C1204      C1205   1.404       .  A
C1205      C1206   1.403       .  A
C1205      H1208   1.083       .  S
C1206      C2872   1.411       .  A
C1206     Br1212   1.919       .  S
C1213      C1214   1.408       .  A
C1213      C2890   1.403       .  A
C1214      C1215   1.399       .  A
C1214     Br1230   1.918       .  S
C1215      C1216   1.403       .  A
C1215      H1219   1.083       .  S
C1216      C2889   1.407       .  A
C1216      C1220   1.477       .  S
C1217      C2888   1.407       .  A
C1217      C1218   1.398       .  A
C1217     Br1229   1.918       .  S
C1218      C2885   1.403       .  A
C1218      H1221   1.083       .  S
C1220      C1222   1.402       .  A
C1220      C1226   1.407       .  A
C1222      C1223   1.400       .  A
C1222      H1227   1.083       .  S
C1223      C1224   1.413       .  A
C1223     Br1231   1.919       .  S
C1224      C1225   1.405       .  A
C1225      C1226   1.398       .  A
C1225      H1228   1.084       .  S
C1226     Br2904   1.920       .  S
Br1232     C2898   1.920       .  S
C1233      C1234   1.413       .  A
C1233      C1238   1.399       .  A
C1234      C1235   1.397       .  A
C1234     Br1250   1.922       .  S
C1235      C1236   1.399       .  A
C1235      H1239   1.083       .  S
C1236      C1237   1.408       .  A
C1236      C1240   1.471       .  S
C1237      C1238   1.396       .  A
C1237     Br1249   1.920       .  S
C1238      H1241   1.081       .  S
C1240      C1242   1.399       .  A
C1240      C1246   1.404       .  A
C1242      C1243   1.398       .  A
C1242      H1247   1.084       .  S
C1243      C1244   1.417       .  A
C1243     Br1251   1.921       .  S
C1244      C1245   1.407       .  A
C1245      C1246   1.396       .  A
C1245      H1248   1.084       .  S
C1246     Br1252   1.920       .  S
C1253      C1254   1.417       .  A
C1253      C1258   1.408       .  A
C1254      C1255   1.404       .  A
C1254     Br1270   1.912       .  S
C1255      C1256   1.400       .  A
C1255      H1259   1.084       .  S
C1256      C1257   1.408       .  A
C1256      C1260   1.486       .  S
C1257      C1258   1.402       .  A
C1257     Br1269   1.919       .  S
C1258      H1261   1.084       .  S
C1260      C1262   1.400       .  A
C1260      C1266   1.409       .  A
C1262      C1263   1.400       .  A
C1262      H1267   1.083       .  S
C1263      C1264   1.415       .  A
C1263     Br1271   1.922       .  S
C1264      C1265   1.407       .  A
C1265      C1266   1.406       .  A
C1265      H1268   1.083       .  S
C1266     Br1272   1.917       .  S
C1273      C1274   1.420       .  A
C1273      C1278   1.407       .  A
C1274      C1275   1.400       .  A
C1274     Br1290   1.920       .  S
C1275      C1276   1.400       .  A
C1275      H1279   1.084       .  S
C1276      C1277   1.406       .  A
C1276      C1280   1.480       .  S
C1277      C1278   1.397       .  A
C1277     Br1289   1.919       .  S
C1278      H1281   1.080       .  S
C1280      C1282   1.400       .  A
C1280      C1286   1.411       .  A
C1282      C1283   1.397       .  A
C1282      H1287   1.084       .  S
C1283      C1284   1.413       .  A
C1283     Br1291   1.920       .  S
C1284      C1285   1.403       .  A
C1285      C1286   1.401       .  A
C1285      H1288   1.083       .  S
C1286     Br1292   1.919       .  S
C1293      C1294   1.417       .  A
C1293      C1298   1.407       .  A
C1294      C1295   1.399       .  A
C1294     Br1310   1.916       .  S
C1295      C1296   1.398       .  A
C1295      H1299   1.084       .  S
C1296      C1297   1.407       .  A
C1296      C1300   1.479       .  S
C1297      C1298   1.401       .  A
C1297     Br1309   1.917       .  S
C1298      H1301   1.084       .  S
C1300      C1302   1.403       .  A
C1300      C1306   1.408       .  A
C1302      C1303   1.403       .  A
C1302      H1307   1.083       .  S
C1303      C1304   1.411       .  A
C1303     Br1311   1.918       .  S
C1304      C1305   1.401       .  A
C1305      C1306   1.398       .  A
C1305      H1308   1.083       .  S
C1306     Br1312   1.918       .  S
C1313      C1314   1.413       .  A
C1313      C1318   1.408       .  A
C1314      C1315   1.398       .  A
C1314     Br1330   1.919       .  S
C1315      C1316   1.404       .  A
C1315      H1319   1.084       .  S
C1316      C1317   1.414       .  A
C1316      C1320   1.497       .  S
C1317      C1318   1.407       .  A
C1317     Br1329   1.919       .  S
C1318      H1321   1.083       .  S
C1320      C1322   1.405       .  A
C1320      C1326   1.416       .  A
C1322      C1323   1.398       .  A
C1322      H1327   1.084       .  S
C1323      C1324   1.409       .  A
C1323     Br1331   1.917       .  S
C1324      C1325   1.405       .  A
C1325      C1326   1.409       .  A
C1325      H1328   1.083       .  S
C1326     Br1332   1.919       .  S
C1333      C1334   1.410       .  A
C1333      C1338   1.408       .  A
C1334      C1335   1.402       .  A
C1334     Br1350   1.908       .  S
C1335      C1336   1.403       .  A
C1335      H1339   1.084       .  S
C1336      C1337   1.408       .  A
C1336      C1340   1.486       .  S
C1337      C1338   1.403       .  A
C1337     Br1349   1.918       .  S
C1338      H1341   1.084       .  S
C1340      C1342   1.403       .  A
C1340      C1346   1.410       .  A
C1342      C1343   1.401       .  A
C1342      H1347   1.083       .  S
C1343      C1344   1.409       .  A
C1343     Br1351   1.916       .  S
C1344      C1345   1.403       .  A
C1345      C1346   1.402       .  A
C1345      H1348   1.083       .  S
C1346     Br1352   1.918       .  S
C1353      C1354   1.410       .  A
C1353      C3030   1.402   1_455  A
C1354      C1355   1.388       .  A
C1354     Br1370   1.920       .  S
C1355      C1356   1.395       .  A
C1355      H1359   1.084       .  S
C1356      C3029   1.408   1_455  A
C1356      C1360   1.466       .  S
C1357      C3028   1.408       .  A
C1357      C1358   1.402       .  A
C1357     Br1369   1.916       .  S
C1358      C3025   1.402       .  A
C1358      H1361   1.084       .  S
C1360      C3034   1.395   1_455  A
C1360      C1366   1.400       .  A
C1362      C3032   1.395       .  A
C1362      C1363   1.396       .  A
C1362      H1367   1.084       .  S
C1363      C3036   1.424       .  A
C1363     Br1371   1.925       .  S
C1364      C3035   1.424   1_455  A
C1364      C1365   1.414       .  A
C1365      C1366   1.395       .  A
C1365      H1368   1.074       .  S
C1366     Br1372   1.921       .  S
C1373      C2543   1.477       .  S
C1373      C1374   1.407       .  A
C1373      C3050   1.400       .  A
C1374      C1375   1.400       .  A
C1374     Br1390   1.916       .  S
C1375      C1376   1.406       .  A
C1375      H1379   1.083       .  S
C1376      C3049   1.416       .  A
C1376      C1380   1.492       .  S
C1377      C3048   1.416       .  A
C1377      C1378   1.400       .  A
C1377     Br1389   1.921       .  S
C1378      C3045   1.400       .  A
C1378      H1381   1.084       .  S
C1380      C3054   1.402       .  A
C1380      C1386   1.417       .  A
C1382      C3052   1.402       .  A
C1382      C1383   1.396       .  A
C1382      H1387   1.084       .  S
C1383      C3056   1.413       .  A
C1383     Br1391   1.922       .  S
C1384      C3055   1.413       .  A
C1384      C1385   1.403       .  A
C1385      C1386   1.405       .  A
C1385      H1388   1.084       .  S
C1386     Br1392   1.920       .  S
C1393      C1394   1.417       .  A
C1393      C1398   1.411       .  A
C1394      C1395   1.406       .  A
C1394     Br1410   1.920       .  S
C1395      C1396   1.403       .  A
C1395      H1399   1.083       .  S
C1396      C1397   1.406       .  A
C1396      C1400   1.487       .  S
C1397      C1398   1.402       .  A
C1397     Br1409   1.919       .  S
C1398      H1401   1.083       .  S
C1400      C1402   1.405       .  A
C1400      C1406   1.407       .  A
C1402      C1403   1.407       .  A
C1402      H1407   1.084       .  S
C1403      C1404   1.413       .  A
C1403     Br1411   1.916       .  S
C1404      C1405   1.407       .  A
C1405      C1406   1.399       .  A
C1405      H1408   1.084       .  S
C1406     Br1412   1.920       .  S
C1413      C1414   1.414       .  A
C1413      C1418   1.405       .  A
C1414      C1415   1.396       .  A
C1414     Br1430   1.922       .  S
C1415      C1416   1.400       .  A
C1415      H1419   1.083       .  S
C1416      C1417   1.409       .  A
C1416      C1420   1.481       .  S
C1417      C1418   1.404       .  A
C1417     Br1429   1.917       .  S
C1418      H1421   1.081       .  S
C1420      C1422   1.398       .  A
C1420      C1426   1.410       .  A
C1422      C1423   1.396       .  A
C1422      H1427   1.084       .  S
C1423      C1424   1.418       .  A
C1423     Br1431   1.925       .  S
C1424      C1425   1.406       .  A
C1425      C1426   1.406       .  A
C1425      H1428   1.083       .  S
C1426     Br1432   1.917       .  S
C1433      C1434   1.412   1_545  A
C1434      C1435   1.404       .  A
C1434     Br1450   1.916       .  S
C1435      C1436   1.404       .  A
C1435      H1439   1.084       .  S
C1436      C1440   1.480       .  S
C1437      C1438   1.396       .  A
C1437     Br1449   1.920       .  S
C1438      H1441   1.084       .  S
C1440      C1446   1.407       .  A
C1442      C1443   1.401       .  A
C1442      H1447   1.083       .  S
C1443     Br1451   1.920       .  S
C1444      C1445   1.407       .  A
C1445      C1446   1.400       .  A
C1445      H1448   1.083       .  S
C1446     Br1452   1.919       .  S
C1453      C1458   1.404   1_545  A
C1454      C1455   1.403       .  A
C1454     Br1470   1.920       .  S
C1455      H1459   1.084       .  S
C1456      C1457   1.414   1_545  A
C1456      C1460   1.496       .  S
C1457      C1458   1.407       .  A
C1457     Br1469   1.918       .  S
C1458      H1461   1.084       .  S
C1460      C1462   1.407   1_545  A
C1462      C1463   1.408       .  A
C1462      H1467   1.083       .  S
C1463     Br1471   1.919       .  S
C1464      C1465   1.408       .  A
C1465      C1466   1.402       .  A
C1465      H1468   1.083       .  S
C1466     Br1472   1.920       .  S
C1473      C1474   1.416       .  A
C1473      C1478   1.408       .  A
C1474      C1475   1.403       .  A
C1474     Br1490   1.921       .  S
C1475      C1476   1.404       .  A
C1475      H1479   1.083       .  S
C1476      C1477   1.405       .  A
C1476      C1480   1.480       .  S
C1477      C1478   1.395       .  A
C1477     Br1489   1.920       .  S
C1478      H1481   1.083       .  S
C1480      C1482   1.399       .  A
C1480      C1486   1.403       .  A
C1482      C1483   1.400       .  A
C1482      H1487   1.084       .  S
C1483      C1484   1.424       .  A
C1483     Br1491   1.925       .  S
C1484      C1485   1.415       .  A
C1485      C1486   1.398       .  A
C1485      H1488   1.077       .  S
C1486     Br1492   1.920       .  S
C1493      C1494   1.413       .  A
C1493      C1498   1.406       .  A
C1494      C1495   1.404       .  A
C1494     Br1510   1.917       .  S
C1495      C1496   1.405       .  A
C1495      H1499   1.083       .  S
C1496      C1497   1.408       .  A
C1496      C1500   1.484       .  S
C1497      C1498   1.396       .  A
C1497     Br1509   1.921       .  S
C1498      H1501   1.083       .  S
C1500      C1502   1.404       .  A
C1500      C1506   1.406       .  A
C1502      C1503   1.404       .  A
C1502      H1507   1.084       .  S
C1503      C1504   1.419       .  A
C1503     Br1511   1.922       .  S
C1504      C1505   1.411       .  A
C1505      C1506   1.396       .  A
C1505      H1508   1.083       .  S
C1506     Br1512   1.922       .  S
C1513      C1514   1.419       .  A
C1513      C1518   1.406       .  A
C1514      C1515   1.399       .  A
C1514     Br1530   1.924       .  S
C1515      C1516   1.399       .  A
C1515      H1519   1.084       .  S
C1516      C1517   1.405       .  A
C1516      C1520   1.478       .  S
C1517      C1518   1.400       .  A
C1517     Br1529   1.914       .  S
C1518      H1521   1.081       .  S
C1520      C1522   1.402       .  A
C1520      C1526   1.408       .  A
C1522      C1523   1.400       .  A
C1522      H1527   1.083       .  S
C1523      C1524   1.408       .  A
C1523     Br1531   1.918       .  S
C1524      C1525   1.403       .  A
C1525      C1526   1.400       .  A
C1525      H1528   1.084       .  S
C1526     Br1532   1.918       .  S
C1533      C1534   1.419       .  A
C1533      C1538   1.411       .  A
C1534      C1535   1.399       .  A
C1534     Br1550   1.921       .  S
C1535      C1536   1.399       .  A
C1535      H1539   1.084       .  S
C1536      C1537   1.403       .  A
C1536      C1540   1.474       .  S
C1537      C1538   1.398       .  A
C1537     Br1549   1.918       .  S
C1538      H1541   1.083       .  S
C1540      C1542   1.403       .  A
C1540      C1546   1.407       .  A
C1542      C1543   1.400       .  A
C1542      H1547   1.084       .  S
C1543      C1544   1.407       .  A
C1543     Br1551   1.918       .  S
C1544      C1545   1.401       .  A
C1545      C1546   1.397       .  A
C1545      H1548   1.083       .  S
C1546     Br1552   1.918       .  S
C1553      C1554   1.409       .  A
C1553      C1558   1.403       .  A
C1554      C1555   1.400       .  A
C1554     Br1570   1.918       .  S
C1555      C1556   1.403       .  A
C1555      H1559   1.083       .  S
C1556      C1557   1.406       .  A
C1556      C1560   1.474       .  S
C1557      C1558   1.397       .  A
C1557     Br1569   1.919       .  S
C1558      H1561   1.082       .  S
C1560      C1562   1.403       .  A
C1560      C1566   1.404       .  A
C1562      C1563   1.402       .  A
C1562      H1567   1.083       .  S
C1563      C1564   1.412       .  A
C1563     Br1571   1.920       .  S
C1564      C1565   1.404       .  A
C1565      C1566   1.395       .  A
C1565      H1568   1.084       .  S
C1566     Br1572   1.918       .  S
C1573      C1574   1.407       .  A
C1573      C1578   1.402       .  A
C1574      C1575   1.400       .  A
C1574     Br1590   1.917       .  S
C1575      C1576   1.404       .  A
C1575      H1579   1.083       .  S
C1576      C1577   1.410       .  A
C1576      C1580   1.483       .  S
C1577      C1578   1.401       .  A
C1577     Br1589   1.919       .  S
C1578      H1581   1.083       .  S
C1580      C1582   1.403       .  A
C1580      C1586   1.406       .  A
C1582      C1583   1.405       .  A
C1582      H1587   1.084       .  S
C1583      C1584   1.419       .  A
C1583     Br1591   1.921       .  S
C1584      C1585   1.410       .  A
C1585      C1586   1.397       .  A
C1585      H1588   1.083       .  S
C1586     Br1592   1.921       .  S
C1593      C1598   1.401       .  A
C1594      C1595   1.404       .  A
C1594     Br1610   1.918       .  S
C1595      H1599   1.083       .  S
C1596      C1597   1.412       .  A
C1596      C1600   1.493       .  S
C1597      C1598   1.402       .  A
C1597     Br1609   1.919       .  S
C1598      H1601   1.081       .  S
C1600      C1602   1.407       .  A
C1602      C1603   1.408       .  A
C1602      H1607   1.083       .  S
C1603      C1604   1.417       .  A
C1603     Br1611   1.919       .  S
C1605      C1606   1.398       .  A
C1605      H1608   1.083       .  S
C1606     Br1612   1.922       .  S
C1613      C1618   1.403       .  A
C1614      C1615   1.398       .  A
C1614     Br1630   1.922       .  S
C1615      H1619   1.083       .  S
C1616      C1617   1.409       .  A
C1616      C1620   1.479       .  S
C1617      C1618   1.401       .  A
C1617     Br1629   1.918       .  S
C1618      H1621   1.083       .  S
C1620      C1622   1.402       .  A
C1622      C1623   1.400       .  A
C1622      H1627   1.084       .  S
C1623      C1624   1.407       .  A
C1623     Br1631   1.903       .  S
C1625      C1626   1.399       .  A
C1625      H1628   1.084       .  S
C1626     Br1632   1.919       .  S
C1633      C1634   1.413       .  A
C1633      C1638   1.408       .  A
C1634      C1635   1.401       .  A
C1634     Br1650   1.917       .  S
C1635      C1636   1.404       .  A
C1635      H1639   1.083       .  S
C1636      C1637   1.406       .  A
C1636      C1640   1.483       .  S
C1637      C1638   1.397       .  A
C1637     Br1649   1.920       .  S
C1638      H1641   1.083       .  S
C1640      C1642   1.400       .  A
C1640      C1646   1.403       .  A
C1642      C1643   1.403       .  A
C1642      H1647   1.084       .  S
C1643      C1644   1.424       .  A
C1643     Br1651   1.922       .  S
C1644      C1645   1.415       .  A
C1645      C1646   1.396       .  A
C1645      H1648   1.076       .  S
C1646     Br1652   1.922       .  S
C1653      C1654   1.415       .  A
C1653      C1658   1.407       .  A
C1654      C1655   1.400       .  A
C1654     Br1670   1.920       .  S
C1655      C1656   1.400       .  A
C1655      H1659   1.083       .  S
C1656      C1657   1.404       .  A
C1656      C1660   1.472       .  S
C1657      C1658   1.395       .  A
C1657     Br1669   1.920       .  S
C1658      H1661   1.084       .  S
C1660      C1662   1.401       .  A
C1660      C1666   1.406       .  A
C1662      C1663   1.395       .  A
C1662      H1667   1.084       .  S
C1663      C1664   1.406       .  A
C1663     Br1671   1.916       .  S
C1664      C1665   1.403       .  A
C1665      C1666   1.400       .  A
C1665      H1668   1.084       .  S
C1666     Br1672   1.917       .  S
C1673      C1674   1.538   1_545  S
C1673      C1679   1.540       .  S
C1673      C1677   1.549       .  S
C1673      C2480   1.543       .  S
C1674      H2517   1.086       .  S
C1674      C2511   1.363       .  D
C1675      C1676   1.534       .  S
C1675      C2510   1.363       .  D
C1675      C2500   1.474       .  S
C1676      C1680   1.542       .  S
C1676      C1678   1.535       .  S
C1676      H1682   1.111       .  S
C1677      H1683   1.080       .  S
C1677      C2514   1.364   1_545  D
C1678      C2513   1.365       .  D
C1678      C2449   1.485       .  S
C1679      H1684   1.086       .  S
C1679      C2516   1.367   1_545  D
C1680      C2515   1.367       .  D
C1680      C2429   1.483       .  S
H1681      C2510   1.087       .  S
C1685      C1686   1.411   1_556  A
C1685      C2409   1.481       .  S
C1686      C2380   1.477       .  S
C1687      C1688   1.404       .  A
C1687      H1692   1.085       .  S
C1688      C1689   1.413   1_554  A
C1688      C2360   1.482       .  S
C1689      C1690   1.404       .  A
C1689      C2389   1.480       .  S
C1690      H1691   1.085       .  S
C1693      C1694   1.542       .  S
C1693      C2535   1.529       .  S
C1693      C1697   1.538       .  S
C1693      C2320   1.540       .  S
C1694      H1701   1.082       .  S
C1694      C2531   1.367       .  D
C1695      C1696   1.547       .  S
C1695      C2530   1.367       .  D
C1695      C2269   1.490       .  S
C1696      C1700   1.544       .  S
C1696      C1698   1.548       .  S
C1696      H1702   1.109       .  S
C1697      H1703   1.086       .  S
C1697      C2534   1.368       .  D
C1698      C2533   1.367       .  D
C1698      C2289   1.490       .  S
C1699      C2529   1.530       .  S
C1699      H1704   1.087       .  S
C1699      C1700   1.364       .  D
C1700      C2329   1.490       .  S
C1705      C1706   1.532       .  S
C1705      C1709   1.546       .  S
C1705      C2200   1.534       .  S
C1706      H1713   1.087       .  S
C1706      C1707   1.361       .  D
C1707      C1708   1.544       .  S
C1708      C1710   1.546       .  S
C1709      H1715   1.080       .  S
C1709      C1710   1.368       .  D
C1710      C2240   1.494       .  S
C1711      H1716   1.086       .  S
C1711      C1712   1.363       .  D
C1712      C2249   1.488       .  S
C1717      C1718   1.412   1_556  A
C1717      C2558   1.406       .  A
C1717      C2180   1.486       .  S
C1718      C2555   1.401       .  A
C1718      C2140   1.482       .  S
C1719      C2554   1.401   1_545  A
C1719      C1720   1.407       .  A
C1719      H1724   1.084       .  S
C1720      C1721   1.420   1_554  A
C1720      C2120   1.485       .  S
C1721      C1722   1.410       .  A
C1721      C2149   1.498       .  S
C1722      C2553   1.405   1_545  A
C1722      H1723   1.084       .  S
O1725      C1733   1.269       .  A
O1725     Co1745   1.973       .  S
O1726      C1734   1.259       .  A
O1726     Co1746   1.979       .  S
O1727      C1735   1.272       .  A
O1727     Co1747   2.034       .  S
O1728      C1736   1.294       .  A
O1728     Co1748   2.099       .  S
O1729      C1735   1.259       .  A
O1729     Co1746   1.956       .  S
O1730      C1736   1.266       .  A
O1730     Co1745   1.895       .  S
O1731      C1734   1.265       .  A
O1731     Co1748   2.019       .  S
O1732      C1733   1.281       .  A
O1732     Co1747   2.039       .  S
C1733      C2169   1.487       .  S
C1734      C2229   1.498       .  S
C1735      C2340   1.494       .  S
C1736      C2400   1.477       .  S
O1737      C1750   1.296       .  A
O1737     Co1745   2.110       .  S
O1738      C1751   1.275       .  A
O1738     Co1746   2.041       .  S
O1739      C1752   1.256       .  A
O1739     Co1747   1.975       .  S
O1740      C1753   1.267       .  A
O1740     Co1748   1.972       .  S
O1741      C1753   1.278       .  A
O1741     Co1746   2.018       .  S
O1742      C1752   1.260       .  A
O1742     Co1745   2.011       .  S
O1743      C1750   1.265       .  A
O1743     Co1748   1.903       .  S
O1744      C1751   1.257       .  A
O1744     Co1747   1.955       .  S
Co1745     O1749   2.021       .  S
Co1746     O1749   2.037       .  S
Co1747     O1749   2.030       .  S
Co1748     O1749   2.012       .  S
C1750      C2160   1.482       .  S
C1751      C2260   1.484       .  S
C1752      C2420   1.494       .  S
C1753      C2309   1.486       .  S
O1754      C1762   1.268       .  A
O1754     Co1774   2.027       .  S
O1755      C1763   1.281       .  A
O1755     Co1775   2.029       .  S
O1756      C1764   1.262       .  A
O1756     Co1776   1.962       .  S
O1757      C1765   1.265       .  A
O1757     Co1777   1.896       .  S
O1758      C1764   1.273       .  A
O1758     Co1775   2.027       .  S
O1759      C1765   1.295       .  A
O1759     Co1774   2.099       .  S
O1760      C1763   1.267       .  A
O1760     Co1777   1.966       .  S
O1761      C1762   1.256       .  A
O1761     Co1776   1.967       .  S
C1762      C2100   1.486       .  S
C1763      C2109   1.489       .  S
C1764      C2469   1.485       .  S
C1765      C2369   1.490       .  S
O1766      C1779   1.268       .  A
O1766     Co1774   1.898       .  S
O1767      C1780   1.262       .  A
O1767     Co1775   1.962       .  S
O1768      C1781   1.277       .  A
O1768     Co1776   2.026       .  S
O1769      C1782   1.265       .  A
O1769     Co1777   2.017       .  S
O1770      C1782   1.255       .  A
O1770     Co1775   1.970       .  S
O1771      C1781   1.267       .  A
O1771     Co1774   1.962       .  S
O1772      C1779   1.295       .  A
O1772     Co1777   2.104       .  S
O1773      C1780   1.271       .  A
O1773     Co1776   2.018       .  S
Co1774     O1778   2.005       .  S
Co1775     O1778   2.021       .  S
Co1776     O1778   2.021       .  S
Co1777     O1778   2.004       .  S
C1779      C2129   1.486       .  S
C1780      C2080   1.478       .  S
C1781      C2489   1.483       .  S
C1782      C2349   1.487       .  S
O1783      C1791   1.274   1_545  A
O1783     Co1803   2.030       .  S
O1784      C1792   1.295       .  A
O1784     Co1804   2.098   1_455  S
O1785     Co1805   1.968       .  S
O1786      C2630   1.267       .  A
O1786     Co1806   1.966       .  S
O1787      C1793   1.266   1_655  A
O1787     Co1804   2.017       .  S
O1788      C1794   1.279   1_545  A
O1788     Co1803   2.022       .  S
O1789     Co1806   1.896       .  S
O1790      C2627   1.265       .  A
O1790     Co1805   1.979       .  S
C1791      C2300   1.496       .  S
C1791      O2626   1.265       .  A
C1792      C2060   1.479       .  S
C1793      C2220   1.478       .  S
C1794      C2825   1.486       .  S
C1794      O2622   1.267       .  A
O1795      C1808   1.253       .  A
O1795     Co1803   1.969       .  S
O1796      C1809   1.269       .  A
O1796     Co1804   1.970       .  S
O1798      C1811   1.294       .  A
O1799      C1811   1.267       .  A
O1799     Co1804   1.908       .  S
O1800      C1810   1.255       .  A
O1800     Co1803   1.948       .  S
O1802      C1809   1.278       .  A
Co1803     O2643   2.013   1_545  S
Co1805     O1807   2.043       .  S
Co1806     O1807   2.018       .  S
O1807     Co2639   2.013       .  S
C1808      C2029   1.497       .  S
C1809      C2280   1.479       .  S
C1810      C2189   1.462       .  S
C1811      C2020   1.495       .  S
O1812      C1820   1.282       .  A
O1812     Co1832   2.042       .  S
O1813     Co1833   2.020       .  S
O1814      C2658   1.266   1_545  A
O1814     Co1834   1.908       .  S
O1815      C1823   1.259   1_455  A
O1815     Co1835   1.955   1_455  S
O1816      C1822   1.291       .  A
O1816     Co1833   2.092       .  S
O1817     Co1832   2.033       .  S
O1818      C1821   1.260       .  A
O1818     Co1835   1.977   1_455  S
O1819      C2656   1.268       .  A
O1819     Co1834   1.963   1_565  S
C1820      C2460   1.474       .  S
C1820      O2655   1.268       .  A
C1821      C1940   1.493       .  S
C1822      C1960   1.475       .  S
C1822      O2650   1.266       .  A
C1823      C1869   1.495       .  S
O1824      C1837   1.258       .  A
O1825      C1838   1.268       .  A
O1825     Co2669   1.905   1_545  S
O1826      C1839   1.262       .  A
O1826     Co1834   2.028       .  S
O1827      C1840   1.273       .  A
O1827     Co1835   2.011       .  S
O1828      C1840   1.267       .  A
O1829      C1839   1.249       .  A
O1829     Co2668   1.964   1_545  S
O1830      C1837   1.277       .  A
O1830     Co1835   2.050       .  S
O1831      C1838   1.293       .  A
O1831     Co1834   2.092       .  S
Co1832     O2665   1.965       .  S
Co1832     O1836   2.021       .  S
Co1833     O2661   1.904       .  S
Co1833     O1836   2.015       .  S
Co1834     O2672   2.030   1_545  S
O1836     Co2670   2.029       .  S
C1837      C2440   1.501       .  S
C1838      C1909   1.478       .  S
C1839      C1889   1.487       .  S
C1840      C1969   1.474       .  S
C1841      C1842   1.413       .  A
C1841      C1846   1.406       .  A
C1841      C2049   1.480       .  S
C1842      C1843   1.404       .  A
C1842      C1929   1.489       .  S
C1843      C1844   1.407       .  A
C1843      H1848   1.084       .  S
C1844      C1845   1.418   1_455  A
C1845      C1846   1.406   1_655  A
C1845      C2040   1.493       .  S
C1846      H1847   1.084   1_455  S
C1849      C1850   1.415       .  A
C1849      C1854   1.401       .  A
C1849      C2009   1.493       .  S
C1850      C1851   1.404       .  A
C1850      C1980   1.481       .  S
C1851      C1852   1.404       .  A
C1851      H1856   1.083       .  S
C1852      C1853   1.419       .  A
C1852      C1949   1.497       .  S
C1853      C1854   1.408       .  A
C1853      C2000   1.481       .  S
C1854      H1855   1.084       .  S
C1857      C1863   1.544       .  S
C1857      C1861   1.538       .  S
C1857      C1900   1.546       .  S
C1858      H1865   1.086       .  S
C1858      C1859   1.373       .  D
C1859      C1860   1.545   1_655  S
C1859      C2089   1.500       .  S
C1860      C1864   1.540       .  S
C1860      H1866   1.105       .  S
C1861      H1867   1.082       .  S
C1861      C1862   1.354       .  D
C1862      C2069   1.473       .  S
C1863      H1868   1.085       .  S
C1864      C1880   1.499   1_455  S
C1869      C1870   1.419       .  A
C1870      C1871   1.406       .  A
C1870     Br1886   1.921       .  S
C1871      C1872   1.402       .  A
C1871      H1875   1.084       .  S
C1872      C1876   1.480       .  S
C1873      C1874   1.396       .  A
C1873     Br1885   1.920       .  S
C1874      H1877   1.083       .  S
C1876      C1882   1.404       .  A
C1878      C1879   1.403       .  A
C1878      H1883   1.084       .  S
C1879     Br1887   1.917       .  S
C1880      C1881   1.408       .  A
C1881      C1882   1.398       .  A
C1881      H1884   1.083       .  S
C1882     Br1888   1.917       .  S
C1889      C1890   1.420       .  A
C1889      C1894   1.406       .  A
C1890      C1891   1.398       .  A
C1890     Br1906   1.924       .  S
C1891      C1892   1.397       .  A
C1891      H1895   1.084       .  S
C1892      C1893   1.410       .  A
C1892      C1896   1.483       .  S
C1893      C1894   1.406       .  A
C1893     Br1905   1.917       .  S
C1894      H1897   1.084       .  S
C1896      C1902   1.401       .  A
C1898      C1899   1.407       .  A
C1898      H1903   1.083       .  S
C1899     Br1907   1.922       .  S
C1900      C1901   1.416       .  A
C1901      C1902   1.397       .  A
C1901      H1904   1.076       .  S
C1902     Br1908   1.921       .  S
C1909      C1914   1.404       .  A
C1910      C1911   1.402       .  A
C1910     Br1926   1.920       .  S
C1911      H1915   1.083       .  S
C1912      C1913   1.408       .  A
C1912      C1916   1.480       .  S
C1913      C1914   1.398       .  A
C1913     Br1925   1.918       .  S
C1914      H1917   1.084       .  S
C1916      C1922   1.408       .  A
C1918      C1919   1.400       .  A
C1918      H1923   1.083       .  S
C1919     Br1927   1.918       .  S
C1920      C1921   1.404       .  A
C1921      C1922   1.399       .  A
C1921      H1924   1.083       .  S
C1922     Br1928   1.919       .  S
C1929      C1930   1.409   1_455  A
C1930      C1931   1.403       .  A
C1930     Br1946   1.916       .  S
C1931      C1932   1.404   1_655  A
C1931      H1935   1.083       .  S
C1932      C1936   1.485       .  S
C1933      C1934   1.403       .  A
C1933     Br1945   1.916       .  S
C1934      H1937   1.083       .  S
C1936      C1938   1.405       .  A
C1938      C1939   1.408       .  A
C1938      H1943   1.083       .  S
C1939      C1940   1.416       .  A
C1939     Br1947   1.919       .  S
C1941      C1942   1.397       .  A
C1941      H1944   1.083       .  S
C1942     Br1948   1.919       .  S
C1949      C2786   1.415       .  A
C1949      C1954   1.408       .  A
C1950      C2785   1.415   1_545  A
C1950      C1951   1.397       .  A
C1950     Br1966   1.923       .  S
C1951      C2788   1.402   1_545  A
C1951      H1955   1.083       .  S
C1952      C2787   1.401       .  A
C1952      C1953   1.410       .  A
C1952      C1956   1.488       .  S
C1953      C1954   1.405       .  A
C1953     Br1965   1.918       .  S
C1954      H1957   1.082       .  S
C1956      C1958   1.407       .  A
C1956      C2798   1.410       .  A
C1958      C1959   1.405       .  A
C1958      H1963   1.083       .  S
C1959      C1960   1.408       .  A
C1959     Br1967   1.919       .  S
C1960      C2797   1.402       .  A
C1961      C2796   1.402   1_545  A
C1961      C1962   1.398       .  A
C1961      H1964   1.083       .  S
C1962      C2792   1.411   1_545  A
C1962     Br1968   1.920       .  S
C1969      C1970   1.414       .  A
C1969      C2810   1.404       .  A
C1970      C1971   1.393       .  A
C1970     Br1986   1.920       .  S
C1971      C1972   1.399       .  A
C1971      H1975   1.084       .  S
C1972      C2809   1.411       .  A
C1972      C1976   1.478       .  S
C1973      C2808   1.411   1_545  A
C1973      C1974   1.401   1_545  A
C1973     Br1985   1.919       .  S
C1974      C2805   1.403       .  A
C1974      H1977   1.084   1_565  S
C1976      C2814   1.402       .  A
C1976      C1982   1.409       .  A
C1978      C2812   1.402   1_545  A
C1978      C1979   1.397       .  A
C1978      H1983   1.084       .  S
C1979      C2816   1.409   1_545  A
C1979     Br1987   1.917       .  S
C1980      C2815   1.409       .  A
C1980      C1981   1.404       .  A
C1981      C1982   1.396       .  A
C1981      H1984   1.084       .  S
C1982     Br1988   1.921       .  S
C1989      C1990   1.418       .  A
C1989      C2830   1.409       .  A
C1989      C2630   1.486       .  S
C1990      C1991   1.396       .  A
C1990     Br2006   1.920       .  S
C1991      C1992   1.400       .  A
C1991      H1995   1.084       .  S
C1992      C2829   1.407       .  A
C1992      C1996   1.479       .  S
C1993      C2828   1.407   1_545  A
C1993      C1994   1.399       .  A
C1993     Br2005   1.919       .  S
C1994      C2825   1.409   1_545  A
C1994      H1997   1.083       .  S
C1996      C2834   1.406       .  A
C1996      C2002   1.407       .  A
C1998      C2832   1.406   1_545  A
C1998      C1999   1.403       .  A
C1998      H2003   1.083       .  S
C1999      C2836   1.410   1_545  A
C1999     Br2007   1.918       .  S
C2000      C2835   1.410       .  A
C2000      C2001   1.403       .  A
C2001      C2002   1.392       .  A
C2001      H2004   1.083       .  S
C2002     Br2008   1.920       .  S
C2009      C2010   1.413       .  A
C2009      C2850   1.406       .  A
C2010      C2011   1.405       .  A
C2010     Br2026   1.918       .  S
C2011      C2012   1.404       .  A
C2011      H2015   1.083       .  S
C2012      C2013   1.406       .  A
C2012      C2016   1.484       .  S
C2013      C2850   1.400       .  A
C2013     Br2861   1.918       .  S
C2014      C2845   1.406   1_545  A
C2014      C2849   1.400       .  A
C2014      H2017   1.083       .  S
C2016      C2854   1.399       .  A
C2016      C2022   1.407       .  A
C2018      C2852   1.399       .  A
C2018      C2019   1.402       .  A
C2018      H2023   1.084       .  S
C2019      C2856   1.420       .  A
C2019     Br2027   1.918       .  S
C2020      C2855   1.420       .  A
C2020      C2021   1.409       .  A
C2021      C2022   1.404       .  A
C2021      H2024   1.083       .  S
C2022     Br2028   1.917       .  S
Br2025     C2849   1.918       .  S
C2029      C2034   1.407       .  A
C2030      C2031   1.400       .  A
C2030     Br2046   1.922       .  S
C2031      H2035   1.084       .  S
C2032      C2033   1.409       .  A
C2032      C2036   1.491       .  S
C2033      C2034   1.404       .  A
C2033     Br2045   1.912       .  S
C2034      H2037   1.083       .  S
C2036      C2038   1.405       .  A
C2038      C2039   1.404       .  A
C2038      H2043   1.083       .  S
C2039     Br2047   1.917       .  S
C2040      C2041   1.404       .  A
C2041      C2042   1.402       .  A
C2041      H2044   1.083       .  S
C2042     Br2048   1.919       .  S
C2049      C2050   1.408   1_455  A
C2050      C2051   1.399       .  A
C2050     Br2066   1.917       .  S
C2051      C2052   1.403   1_655  A
C2051      H2055   1.083       .  S
C2052      C2056   1.478       .  S
C2053      C2054   1.399       .  A
C2053     Br2065   1.918       .  S
C2054      H2057   1.083       .  S
C2056      C2058   1.402       .  A
C2056      C2062   1.407   1_455  A
C2058      C2059   1.400       .  A
C2058      H2063   1.083       .  S
C2059      C2060   1.413       .  A
C2059     Br2067   1.919       .  S
C2060      C2061   1.405   1_455  A
C2061      C2062   1.398       .  A
C2061      H2064   1.084       .  S
C2069      C2070   1.412       .  A
C2069      C2074   1.399       .  A
C2070      C2071   1.397       .  A
C2070     Br2086   1.922       .  S
C2071      C2072   1.399       .  A
C2071      H2075   1.083       .  S
C2072      C2073   1.408       .  A
C2072      C2076   1.470       .  S
C2073      C2074   1.396       .  A
C2073     Br2085   1.920       .  S
C2074      H2077   1.081       .  S
C2076      C2078   1.398       .  A
C2076      C2082   1.404       .  A
C2078      C2079   1.398       .  A
C2078      H2083   1.084       .  S
C2079      C2080   1.417       .  A
C2079     Br2087   1.922       .  S
C2080      C2081   1.407       .  A
C2081      C2082   1.396       .  A
C2081      H2084   1.084       .  S
C2082     Br2088   1.920       .  S
C2089      C2090   1.417       .  A
C2089      C2094   1.408       .  A
C2090      C2091   1.404       .  A
C2090     Br2106   1.912       .  S
C2091      C2092   1.400       .  A
C2091      H2095   1.084       .  S
C2092      C2093   1.408       .  A
C2092      C2096   1.485       .  S
C2093      C2094   1.402       .  A
C2093     Br2105   1.919       .  S
C2094      H2097   1.084       .  S
C2096      C2098   1.400       .  A
C2096      C2102   1.409       .  A
C2098      C2099   1.399       .  A
C2098      H2103   1.083       .  S
C2099      C2100   1.415       .  A
C2099     Br2107   1.922       .  S
C2100      C2101   1.407       .  A
C2101      C2102   1.405       .  A
C2101      H2104   1.083       .  S
C2102     Br2108   1.917       .  S
C2109      C2110   1.420       .  A
C2109      C2114   1.407       .  A
C2110      C2111   1.400       .  A
C2110     Br2126   1.919       .  S
C2111      C2112   1.400       .  A
C2111      H2115   1.084       .  S
C2112      C2113   1.406       .  A
C2112      C2116   1.480       .  S
C2113      C2114   1.397       .  A
C2113     Br2125   1.919       .  S
C2114      H2117   1.081       .  S
C2116      C2118   1.400       .  A
C2116      C2122   1.411       .  A
C2118      C2119   1.397       .  A
C2118      H2123   1.084       .  S
C2119      C2120   1.413       .  A
C2119     Br2127   1.920       .  S
C2120      C2121   1.403       .  A
C2121      C2122   1.401       .  A
C2121      H2124   1.083       .  S
C2122     Br2128   1.919       .  S
C2129      C2130   1.417       .  A
C2129      C2134   1.407       .  A
C2130      C2131   1.399       .  A
C2130     Br2146   1.915       .  S
C2131      C2132   1.398       .  A
C2131      H2135   1.084       .  S
C2132      C2133   1.407       .  A
C2132      C2136   1.479       .  S
C2133      C2134   1.401       .  A
C2133     Br2145   1.917       .  S
C2134      H2137   1.084       .  S
C2136      C2138   1.403       .  A
C2136      C2142   1.408       .  A
C2138      C2139   1.403       .  A
C2138      H2143   1.083       .  S
C2139      C2140   1.411       .  A
C2139     Br2147   1.918       .  S
C2140      C2141   1.402       .  A
C2141      C2142   1.399       .  A
C2141      H2144   1.083       .  S
C2142     Br2148   1.918       .  S
C2149      C2150   1.413       .  A
C2149      C2154   1.408       .  A
C2150      C2151   1.398       .  A
C2150     Br2166   1.919       .  S
C2151      C2152   1.404       .  A
C2151      H2155   1.084       .  S
C2152      C2153   1.414       .  A
C2152      C2156   1.496       .  S
C2153      C2154   1.407       .  A
C2153     Br2165   1.919       .  S
C2154      H2157   1.083       .  S
C2156      C2158   1.404       .  A
C2156      C2162   1.416       .  A
C2158      C2159   1.397       .  A
C2158      H2163   1.084       .  S
C2159      C2160   1.409       .  A
C2159     Br2167   1.917       .  S
C2160      C2161   1.405       .  A
C2161      C2162   1.409       .  A
C2161      H2164   1.083       .  S
C2162     Br2168   1.919       .  S
C2169      C2170   1.410       .  A
C2169      C2174   1.408       .  A
C2170      C2171   1.402       .  A
C2170     Br2186   1.908       .  S
C2171      C2172   1.402       .  A
C2171      H2175   1.084       .  S
C2172      C2173   1.408       .  A
C2172      C2176   1.486       .  S
C2173      C2174   1.403       .  A
C2173     Br2185   1.918       .  S
C2174      H2177   1.084       .  S
C2176      C2178   1.403       .  A
C2176      C2182   1.410       .  A
C2178      C2179   1.401       .  A
C2178      H2183   1.083       .  S
C2179      C2180   1.409       .  A
C2179     Br2187   1.915       .  S
C2180      C2181   1.403       .  A
C2181      C2182   1.402       .  A
C2181      H2184   1.083       .  S
C2182     Br2188   1.918       .  S
C2189      C2190   1.410       .  A
C2190      C2191   1.388       .  A
C2190     Br2206   1.920       .  S
C2191      C2192   1.395       .  A
C2191      H2195   1.084       .  S
C2192      C2196   1.467       .  S
C2193      C2194   1.402       .  A
C2193     Br2205   1.916       .  S
C2194      H2197   1.084       .  S
C2196      C2202   1.400       .  A
C2198      C2199   1.396       .  A
C2198      H2203   1.084       .  S
C2199     Br2207   1.925       .  S
C2200      C2201   1.414       .  A
C2201      C2202   1.395       .  A
C2201      H2204   1.074       .  S
C2202     Br2208   1.921       .  S
C2209      C2210   1.407   1_455  A
C2210      C2211   1.400       .  A
C2210     Br2226   1.916       .  S
C2211      C2212   1.406   1_655  A
C2211      H2215   1.083       .  S
C2212      C2216   1.492       .  S
C2213      C2214   1.400       .  A
C2213     Br2225   1.921       .  S
C2214      H2217   1.084       .  S
C2216      C2222   1.417   1_455  A
C2218      C2219   1.396       .  A
C2218      H2223   1.084       .  S
C2219     Br2227   1.922       .  S
C2220      C2221   1.402   1_455  A
C2221      C2222   1.404       .  A
C2221      H2224   1.084       .  S
C2222     Br2228   1.920       .  S
C2229      C2230   1.417       .  A
C2229      C2234   1.412       .  A
C2230      C2231   1.406       .  A
C2230     Br2246   1.920       .  S
C2231      C2232   1.403       .  A
C2231      H2235   1.083       .  S
C2232      C2233   1.405       .  A
C2232      C2236   1.487       .  S
C2233      C2234   1.402       .  A
C2233     Br2245   1.919       .  S
C2234      H2237   1.083       .  S
C2236      C2238   1.405       .  A
C2236      C2242   1.407       .  A
C2238      C2239   1.407       .  A
C2238      H2243   1.084       .  S
C2239      C2240   1.412       .  A
C2239     Br2247   1.916       .  S
C2240      C2241   1.407       .  A
C2241      C2242   1.399       .  A
C2241      H2244   1.084       .  S
C2242     Br2248   1.919       .  S
C2249      C2250   1.414       .  A
C2249      C2254   1.405       .  A
C2250      C2251   1.396       .  A
C2250     Br2266   1.922       .  S
C2251      C2252   1.400       .  A
C2251      H2255   1.083       .  S
C2252      C2253   1.408       .  A
C2252      C2256   1.480       .  S
C2253      C2254   1.404       .  A
C2253     Br2265   1.917       .  S
C2254      H2257   1.081       .  S
C2256      C2258   1.397       .  A
C2256      C2262   1.410       .  A
C2258      C2259   1.395       .  A
C2258      H2263   1.084       .  S
C2259      C2260   1.418       .  A
C2259     Br2267   1.924       .  S
C2260      C2261   1.406       .  A
C2261      C2262   1.406       .  A
C2261      H2264   1.083       .  S
C2262     Br2268   1.917       .  S
C2269      C2270   1.412       .  A
C2269      C3110   1.408       .  A
C2270      C2271   1.403       .  A
C2270     Br2286   1.916       .  S
C2271      C2272   1.404       .  A
C2271      H2275   1.084       .  S
C2272      C3109   1.405       .  A
C2272      C2276   1.479       .  S
C2273      C3108   1.405   1_545  A
C2273      C2274   1.396       .  A
C2273     Br2285   1.920       .  S
C2274      C3105   1.408       .  A
C2274      H2277   1.084       .  S
C2276      C3114   1.403       .  A
C2276      C2282   1.407       .  A
C2278      C3112   1.403   1_545  A
C2278      C2279   1.401       .  A
C2278      H2283   1.083       .  S
C2279      C3116   1.410   1_545  A
C2279     Br2287   1.920       .  S
C2280      C3115   1.410       .  A
C2280      C2281   1.406       .  A
C2281      C2282   1.400       .  A
C2281      H2284   1.083       .  S
C2282     Br2288   1.919       .  S
C2289      C3126   1.412       .  A
C2289      C2294   1.404       .  A
C2290      C3125   1.412       .  A
C2290      C2291   1.403       .  A
C2290     Br2306   1.920       .  S
C2291      C3128   1.405       .  A
C2291      H2295   1.084       .  S
C2292      C3127   1.405       .  A
C2292      C2293   1.413       .  A
C2292      C2296   1.495       .  S
C2293      C2294   1.406       .  A
C2293     Br2305   1.918       .  S
C2294      H2297   1.084       .  S
C2296      C2298   1.407       .  A
C2296      C3138   1.410       .  A
C2298      C2299   1.408       .  A
C2298      H2303   1.083       .  S
C2299      C3136   1.414       .  A
C2299     Br2307   1.919       .  S
C2300      C3135   1.415       .  A
C2300      C2301   1.408   1_565  A
C2301      C2302   1.402       .  A
C2301      H2304   1.083       .  S
C2302      C3132   1.411       .  A
C2302     Br2308   1.920       .  S
C2309      C2310   1.416       .  A
C2309      C2314   1.407       .  A
C2310      C2311   1.404       .  A
C2310     Br2326   1.921       .  S
C2311      C2312   1.404       .  A
C2311      H2315   1.083       .  S
C2312      C2313   1.405       .  A
C2312      C2316   1.480       .  S
C2313      C2314   1.395       .  A
C2313     Br2325   1.920       .  S
C2314      H2317   1.083       .  S
C2316      C2318   1.399       .  A
C2316      C2322   1.403       .  A
C2318      C2319   1.400       .  A
C2318      H2323   1.084       .  S
C2319      C2320   1.424       .  A
C2319     Br2327   1.925       .  S
C2320      C2321   1.415       .  A
C2321      C2322   1.398       .  A
C2321      H2324   1.077       .  S
C2322     Br2328   1.920       .  S
C2329      C2330   1.413       .  A
C2329      C2334   1.406       .  A
C2330      C2331   1.404       .  A
C2330     Br2346   1.917       .  S
C2331      C2332   1.405       .  A
C2331      H2335   1.083       .  S
C2332      C2333   1.408       .  A
C2332      C2336   1.484       .  S
C2333      C2334   1.396       .  A
C2333     Br2345   1.921       .  S
C2334      H2337   1.083       .  S
C2336      C2338   1.403       .  A
C2336      C2342   1.406       .  A
C2338      C2339   1.403       .  A
C2338      H2343   1.084       .  S
C2339      C2340   1.419       .  A
C2339     Br2347   1.922       .  S
C2340      C2341   1.411       .  A
C2341      C2342   1.396       .  A
C2341      H2344   1.083       .  S
C2342     Br2348   1.922       .  S
C2349      C2350   1.419       .  A
C2349      C2354   1.406       .  A
C2350      C2351   1.399       .  A
C2350     Br2366   1.924       .  S
C2351      C2352   1.399       .  A
C2351      H2355   1.084       .  S
C2352      C2353   1.406       .  A
C2352      C2356   1.479       .  S
C2353      C2354   1.401       .  A
C2353     Br2365   1.913       .  S
C2354      H2357   1.081       .  S
C2356      C2358   1.402       .  A
C2356      C2362   1.408       .  A
C2358      C2359   1.401       .  A
C2358      H2363   1.083       .  S
C2359      C2360   1.408       .  A
C2359     Br2367   1.918       .  S
C2360      C2361   1.403       .  A
C2361      C2362   1.400       .  A
C2361      H2364   1.083       .  S
C2362     Br2368   1.918       .  S
C2369      C2370   1.419       .  A
C2369      C2374   1.411       .  A
C2370      C2371   1.400       .  A
C2370     Br2386   1.922       .  S
C2371      C2372   1.399       .  A
C2371      H2375   1.084       .  S
C2372      C2373   1.403       .  A
C2372      C2376   1.476       .  S
C2373      C2374   1.399       .  A
C2373     Br2385   1.918       .  S
C2374      H2377   1.083       .  S
C2376      C2378   1.403       .  A
C2376      C2382   1.407       .  A
C2378      C2379   1.400       .  A
C2378      H2383   1.084       .  S
C2379      C2380   1.407       .  A
C2379     Br2387   1.918       .  S
C2380      C2381   1.401       .  A
C2381      C2382   1.398       .  A
C2381      H2384   1.083       .  S
C2382     Br2388   1.918       .  S
C2389      C2390   1.408       .  A
C2389      C2394   1.403       .  A
C2390      C2391   1.399       .  A
C2390     Br2406   1.918       .  S
C2391      C2392   1.403       .  A
C2391      H2395   1.083       .  S
C2392      C2393   1.406       .  A
C2392      C2396   1.475       .  S
C2393      C2394   1.398       .  A
C2393     Br2405   1.919       .  S
C2394      H2397   1.082       .  S
C2396      C2398   1.403       .  A
C2396      C2402   1.404       .  A
C2398      C2399   1.402       .  A
C2398      H2403   1.083       .  S
C2399      C2400   1.413       .  A
C2399     Br2407   1.920       .  S
C2400      C2401   1.404       .  A
C2401      C2402   1.395       .  A
C2401      H2404   1.084       .  S
C2402     Br2408   1.918       .  S
C2409      C2410   1.407       .  A
C2409      C2414   1.402       .  A
C2410      C2411   1.400       .  A
C2410     Br2426   1.917       .  S
C2411      C2412   1.404       .  A
C2411      H2415   1.083       .  S
C2412      C2413   1.411       .  A
C2412      C2416   1.485       .  S
C2413      C2414   1.401       .  A
C2413     Br2425   1.919       .  S
C2414      H2417   1.083       .  S
C2416      C2418   1.403       .  A
C2416      C2422   1.407       .  A
C2418      C2419   1.405       .  A
C2418      H2423   1.084       .  S
C2419      C2420   1.419       .  A
C2419     Br2427   1.921       .  S
C2420      C2421   1.409       .  A
C2421      C2422   1.397       .  A
C2421      H2424   1.083       .  S
C2422     Br2428   1.921       .  S
C2429      C3266   1.407       .  A
C2429      C2434   1.401       .  A
C2430      C3265   1.407   1_545  A
C2430      C2431   1.404   1_545  A
C2430     Br2446   1.918       .  S
C2431      C3268   1.408       .  A
C2431      H2435   1.083   1_565  S
C2432      C3267   1.408       .  A
C2432      C2433   1.413       .  A
C2432      C2436   1.494       .  S
C2433      C2434   1.402       .  A
C2433     Br2445   1.920       .  S
C2434      H2437   1.081       .  S
C2436      C2438   1.407       .  A
C2436      C3278   1.408       .  A
C2438      C2439   1.408       .  A
C2438      H2443   1.083       .  S
C2439      C2440   1.417       .  A
C2439     Br2447   1.919       .  S
C2440      C3277   1.413       .  A
C2441      C3276   1.413       .  A
C2441      C2442   1.398   1_565  A
C2441      H2444   1.083   1_565  S
C2442      C3272   1.407   1_545  A
C2442     Br2448   1.922       .  S
C2449      C3286   1.414       .  A
C2449      C2454   1.403       .  A
C2450      C3285   1.414       .  A
C2450      C2451   1.397       .  A
C2450     Br2466   1.922       .  S
C2451      C3288   1.400       .  A
C2451      H2455   1.084       .  S
C2452      C3287   1.400       .  A
C2452      C2453   1.408       .  A
C2452      C2456   1.478       .  S
C2453      C2454   1.401       .  A
C2453     Br2465   1.917       .  S
C2454      H2457   1.082       .  S
C2456      C2458   1.402       .  A
C2456      C3298   1.408       .  A
C2458      C2459   1.401       .  A
C2458      H2463   1.084       .  S
C2459      C2460   1.407       .  A
C2459     Br2467   1.905       .  S
C2460      C3297   1.403       .  A
C2461      C3296   1.403   1_545  A
C2461      C2462   1.399       .  A
C2461      H2464   1.084       .  S
C2462      C3292   1.408   1_545  A
C2462     Br2468   1.919       .  S
C2469      C2470   1.413       .  A
C2469      C2474   1.408       .  A
C2470      C2471   1.401       .  A
C2470     Br2486   1.917       .  S
C2471      C2472   1.404       .  A
C2471      H2475   1.083       .  S
C2472      C2473   1.406       .  A
C2472      C2476   1.483       .  S
C2473      C2474   1.398       .  A
C2473     Br2485   1.920       .  S
C2474      H2477   1.083       .  S
C2476      C2478   1.400       .  A
C2476      C2482   1.403       .  A
C2478      C2479   1.403       .  A
C2478      H2483   1.084       .  S
C2479      C2480   1.424       .  A
C2479     Br2487   1.922       .  S
C2480      C2481   1.415       .  A
C2481      C2482   1.396       .  A
C2481      H2484   1.074       .  S
C2482     Br2488   1.922       .  S
C2489      C2490   1.416       .  A
C2489      C2494   1.408       .  A
C2490      C2491   1.400       .  A
C2490     Br2506   1.921       .  S
C2491      C2492   1.400       .  A
C2491      H2495   1.083       .  S
C2492      C2493   1.405       .  A
C2492      C2496   1.473       .  S
C2493      C2494   1.396       .  A
C2493     Br2505   1.920       .  S
C2494      H2497   1.083       .  S
C2496      C2498   1.401       .  A
C2496      C2502   1.406       .  A
C2498      C2499   1.396       .  A
C2498      H2503   1.084       .  S
C2499      C2500   1.407       .  A
C2499     Br2507   1.916       .  S
C2500      C2501   1.403       .  A
C2501      C2502   1.400       .  A
C2501      H2504   1.084       .  S
C2502     Br2508   1.917       .  S
C2509      C2510   1.538       .  S
C2509      C2515   1.540       .  S
C2509      C2513   1.549       .  S
C2509      C3316   1.544       .  S
C2511      C2512   1.533       .  S
C2511      C3336   1.472       .  S
C2512      C2516   1.541       .  S
C2512      C2514   1.535       .  S
C2512      H2518   1.111       .  S
C2513      H2519   1.081       .  S
C2514      C3285   1.483       .  S
C2515      H2520   1.086       .  S
C2516      C3265   1.483       .  S
C2521      C2522   1.411   1_556  A
C2521      C3245   1.481       .  S
C2522      C3216   1.476       .  S
C2523      C2524   1.403       .  A
C2523      H2528   1.085       .  S
C2524      C2525   1.413   1_554  A
C2524      C3196   1.481       .  S
C2525      C2526   1.404       .  A
C2525      C3225   1.480       .  S
C2526      H2527   1.085       .  S
C2529      C2530   1.541       .  S
C2529      C2533   1.538       .  S
C2529      C3156   1.540       .  S
C2530      H2537   1.082       .  S
C2531      C2532   1.547       .  S
C2531      C3105   1.491       .  S
C2532      C2536   1.544   1_545  S
C2532      C2534   1.548       .  S
C2532      H2538   1.109   1_545  S
C2533      H2539   1.086       .  S
C2534      C3125   1.491       .  S
C2535      H2540   1.087       .  S
C2535      C2536   1.363   1_545  D
C2536      C3165   1.490       .  S
C2541      C2542   1.532       .  S
C2541      C2545   1.546       .  S
C2541      C3036   1.533       .  S
C2542      H2549   1.087       .  S
C2542      C2543   1.361       .  D
C2543      C2544   1.545       .  S
C2544      C2546   1.547       .  S
C2545      H2551   1.080       .  S
C2545      C2546   1.367       .  D
C2546      C3076   1.495       .  S
C2547      H2552   1.086       .  S
C2547      C2548   1.363       .  D
C2548      C3085   1.488       .  S
C2553      C2554   1.412   1_556  A
C2553      C3016   1.485       .  S
C2554      C2976   1.483       .  S
C2555      C2556   1.406       .  A
C2555      H2560   1.084       .  S
C2556      C2557   1.420   1_554  A
C2556      C2956   1.485       .  S
C2557      C2558   1.410       .  A
C2557      C2985   1.498       .  S
C2558      H2559   1.084       .  S
O2561      C2569   1.269       .  A
O2561     Co2581   1.972       .  S
O2562      C2570   1.259       .  A
O2562     Co2582   1.979       .  S
O2563      C2571   1.272       .  A
O2563     Co2583   2.034       .  S
O2564      C2572   1.294       .  A
O2564     Co2584   2.099       .  S
O2565      C2571   1.259       .  A
O2565     Co2582   1.956       .  S
O2566      C2572   1.266       .  A
O2566     Co2581   1.895       .  S
O2567      C2570   1.265       .  A
O2567     Co2584   2.018       .  S
O2568      C2569   1.281       .  A
O2568     Co2583   2.039       .  S
C2569      C3005   1.487       .  S
C2570      C3065   1.497       .  S
C2571      C3176   1.495       .  S
C2572      C3236   1.476       .  S
O2573      C2586   1.296       .  A
O2573     Co2581   2.110       .  S
O2574      C2587   1.275       .  A
O2574     Co2582   2.042       .  S
O2575      C2588   1.255       .  A
O2575     Co2583   1.974       .  S
O2576      C2589   1.267       .  A
O2576     Co2584   1.972       .  S
O2577      C2589   1.277       .  A
O2577     Co2582   2.018       .  S
O2578      C2588   1.260       .  A
O2578     Co2581   2.011       .  S
O2579      C2586   1.265       .  A
O2579     Co2584   1.903       .  S
O2580      C2587   1.257       .  A
O2580     Co2583   1.955       .  S
Co2581     O2585   2.021       .  S
Co2582     O2585   2.037       .  S
Co2583     O2585   2.030       .  S
Co2584     O2585   2.012       .  S
C2586      C2996   1.482       .  S
C2587      C3096   1.485       .  S
C2588      C3256   1.493       .  S
C2589      C3145   1.486       .  S
O2590      C2598   1.268       .  A
O2590     Co2610   2.028       .  S
O2591      C2599   1.281       .  A
O2591     Co2611   2.028       .  S
O2592      C2600   1.262       .  A
O2592     Co2612   1.961       .  S
O2593      C2601   1.265       .  A
O2593     Co2613   1.897       .  S
O2594      C2600   1.273       .  A
O2594     Co2611   2.028       .  S
O2595      C2601   1.294       .  A
O2595     Co2610   2.097       .  S
O2596      C2599   1.267       .  A
O2596     Co2613   1.966       .  S
O2597      C2598   1.256       .  A
O2597     Co2612   1.967       .  S
C2598      C2936   1.486       .  S
C2599      C2945   1.489       .  S
C2600      C3305   1.485       .  S
C2601      C3205   1.489       .  S
O2602      C2615   1.268       .  A
O2602     Co2610   1.899       .  S
O2603      C2616   1.262       .  A
O2603     Co2611   1.962       .  S
O2604      C2617   1.277       .  A
O2604     Co2612   2.025       .  S
O2605      C2618   1.265       .  A
O2605     Co2613   2.017       .  S
O2606      C2618   1.255       .  A
O2606     Co2611   1.970       .  S
O2607      C2617   1.266       .  A
O2607     Co2610   1.960       .  S
O2608      C2615   1.295       .  A
O2608     Co2613   2.103       .  S
O2609      C2616   1.271       .  A
O2609     Co2612   2.019       .  S
Co2610     O2614   2.004       .  S
Co2611     O2614   2.020       .  S
Co2612     O2614   2.020       .  S
Co2613     O2614   2.004       .  S
C2615      C2965   1.487       .  S
C2616      C2916   1.479       .  S
C2617      C3325   1.481       .  S
C2618      C3185   1.486       .  S
O2619      C2627   1.274       .  A
O2619     Co2639   2.030       .  S
O2620      C2628   1.295       .  A
O2620     Co2640   2.098   1_455  S
O2621     Co2641   1.969       .  S
O2622     Co2642   1.966       .  S
O2623      C2629   1.266   1_655  A
O2623     Co2640   2.017       .  S
O2624      C2630   1.279       .  A
O2624     Co2639   2.023       .  S
O2625     Co2642   1.896       .  S
O2626     Co2641   1.979       .  S
C2627      C3136   1.495       .  S
C2628      C2896   1.478       .  S
C2629      C3056   1.479       .  S
O2631      C2644   1.253       .  A
O2631     Co2639   1.969       .  S
O2632      C2645   1.269       .  A
O2632     Co2640   1.970       .  S
O2634      C2647   1.294       .  A
O2635      C2647   1.267       .  A
O2635     Co2640   1.908       .  S
O2636      C2646   1.255       .  A
O2636     Co2639   1.948       .  S
O2638      C2645   1.278       .  A
Co2641     O2643   2.044       .  S
Co2642     O2643   2.019       .  S
C2644      C2865   1.497       .  S
C2645      C3116   1.479       .  S
C2646      C3025   1.460       .  S
C2647      C2856   1.494       .  S
O2648      C2656   1.283       .  A
O2648     Co2668   2.043       .  S
O2649     Co2669   2.020       .  S
O2650     Co2670   1.908       .  S
O2651      C2659   1.259   1_455  A
O2651     Co2671   1.954   1_455  S
O2652      C2658   1.291       .  A
O2652     Co2669   2.092       .  S
O2653     Co2668   2.032       .  S
O2654      C2657   1.260       .  A
O2654     Co2671   1.976   1_455  S
O2655     Co2670   1.965       .  S
C2656      C3296   1.475       .  S
C2657      C2776   1.492       .  S
C2658      C2796   1.476       .  S
C2659      C2705   1.494       .  S
O2660      C2673   1.258       .  A
O2661      C2674   1.268       .  A
O2662      C2675   1.263       .  A
O2662     Co2670   2.028       .  S
O2663      C2676   1.272       .  A
O2663     Co2671   2.009       .  S
O2664      C2676   1.266       .  A
O2665      C2675   1.249       .  A
O2666      C2673   1.277       .  A
O2666     Co2671   2.049       .  S
O2667      C2674   1.294       .  A
O2667     Co2670   2.093       .  S
Co2668     O2672   2.021       .  S
Co2669     O2672   2.016       .  S
C2673      C3276   1.501       .  S
C2674      C2745   1.477       .  S
C2675      C2725   1.489       .  S
C2676      C2805   1.473       .  S
C2677      C2678   1.413       .  A
C2677      C2682   1.406   1_455  A
C2677      C2885   1.480       .  S
C2678      C2679   1.404       .  A
C2678      C2765   1.489       .  S
C2679      C2680   1.408       .  A
C2679      H2684   1.084       .  S
C2680      C2681   1.419   1_455  A
C2681      C2682   1.406       .  A
C2681      C2876   1.493       .  S
C2682      H2683   1.084       .  S
C2685      C2686   1.415       .  A
C2685      C2690   1.401       .  A
C2685      C2845   1.493       .  S
C2686      C2687   1.404       .  A
C2686      C2816   1.480       .  S
C2687      C2688   1.404       .  A
C2687      H2692   1.083       .  S
C2688      C2689   1.419       .  A
C2688      C2785   1.497       .  S
C2689      C2690   1.408       .  A
C2689      C2836   1.481       .  S
C2690      H2691   1.084       .  S
C2693      C2699   1.544       .  S
C2693      C2697   1.538       .  S
C2693      C2736   1.547       .  S
C2694      H2701   1.086       .  S
C2694      C2695   1.374       .  D
C2695      C2696   1.546   1_655  S
C2695      C2925   1.501       .  S
C2696      C2700   1.539       .  S
C2696      H2702   1.106       .  S
C2697      H2703   1.083       .  S
C2697      C2698   1.354       .  D
C2698      C2905   1.474       .  S
C2699      H2704   1.085       .  S
C2700      C2716   1.498   1_455  S
C2705      C2706   1.419       .  A
C2706      C2707   1.405       .  A
C2706     Br2722   1.921       .  S
C2707      C2708   1.402       .  A
C2707      H2711   1.084       .  S
C2708      C2712   1.479       .  S
C2709      C2710   1.396       .  A
C2709     Br2721   1.920       .  S
C2710      H2713   1.083       .  S
C2712      C2718   1.404       .  A
C2714      C2715   1.403       .  A
C2714      H2719   1.084       .  S
C2715     Br2723   1.916       .  S
C2716      C2717   1.408       .  A
C2717      C2718   1.397       .  A
C2717      H2720   1.083       .  S
C2718     Br2724   1.917       .  S
C2725      C2726   1.420       .  A
C2725      C2730   1.406       .  A
C2726      C2727   1.398       .  A
C2726     Br2742   1.924       .  S
C2727      C2728   1.397       .  A
C2727      H2731   1.084       .  S
C2728      C2729   1.410       .  A
C2728      C2732   1.484       .  S
C2729      C2730   1.406       .  A
C2729     Br2741   1.917       .  S
C2730      H2733   1.084       .  S
C2732      C2738   1.402       .  A
C2734      C2735   1.407       .  A
C2734      H2739   1.083       .  S
C2735     Br2743   1.922       .  S
C2736      C2737   1.417       .  A
C2737      C2738   1.397       .  A
C2737      H2740   1.077       .  S
C2738     Br2744   1.921       .  S
C2745      C2750   1.404       .  A
C2746      C2747   1.402       .  A
C2746     Br2762   1.920       .  S
C2747      H2751   1.083       .  S
C2748      C2749   1.408       .  A
C2748      C2752   1.480       .  S
C2749      C2750   1.398       .  A
C2749     Br2761   1.918       .  S
C2750      H2753   1.084       .  S
C2752      C2758   1.408       .  A
C2754      C2755   1.400       .  A
C2754      H2759   1.083       .  S
C2755     Br2763   1.918       .  S
C2756      C2757   1.404       .  A
C2757      C2758   1.399       .  A
C2757      H2760   1.083       .  S
C2758     Br2764   1.919       .  S
C2765      C2766   1.409   1_455  A
C2766      C2767   1.402       .  A
C2766     Br2782   1.916       .  S
C2767      C2768   1.404   1_655  A
C2767      H2771   1.083       .  S
C2768      C2772   1.485       .  S
C2769      C2770   1.403       .  A
C2769     Br2781   1.917       .  S
C2770      H2773   1.083       .  S
C2772      C2774   1.405       .  A
C2774      C2775   1.408       .  A
C2774      H2779   1.083       .  S
C2775      C2776   1.416       .  A
C2775     Br2783   1.919       .  S
C2777      C2778   1.397       .  A
C2777      H2780   1.083       .  S
C2778     Br2784   1.919       .  S
C2785      C2790   1.408       .  A
C2786      C2787   1.397       .  A
C2786     Br2802   1.923       .  S
C2787      H2791   1.083       .  S
C2788      C2789   1.411       .  A
C2788      C2792   1.489       .  S
C2789      C2790   1.406       .  A
C2789     Br2801   1.918       .  S
C2790      H2793   1.082       .  S
C2792      C2794   1.407       .  A
C2794      C2795   1.406       .  A
C2794      H2799   1.083       .  S
C2795      C2796   1.409       .  A
C2795     Br2803   1.919       .  S
C2797      C2798   1.398       .  A
C2797      H2800   1.083       .  S
C2798     Br2804   1.920       .  S
C2805      C2806   1.413       .  A
C2806      C2807   1.392       .  A
C2806     Br2822   1.921       .  S
C2807      C2808   1.399       .  A
C2807      H2811   1.084       .  S
C2808      C2812   1.478       .  S
C2809      C2810   1.401       .  A
C2809     Br2821   1.919       .  S
C2810      H2813   1.084       .  S
C2812      C2818   1.409       .  A
C2814      C2815   1.397       .  A
C2814      H2819   1.084       .  S
C2815     Br2823   1.917       .  S
C2816      C2817   1.404       .  A
C2817      C2818   1.395       .  A
C2817      H2820   1.084       .  S
C2818     Br2824   1.921       .  S
C2825      C2826   1.418       .  A
C2826      C2827   1.396       .  A
C2826     Br2842   1.920       .  S
C2827      C2828   1.400       .  A
C2827      H2831   1.084       .  S
C2828      C2832   1.479       .  S
C2829      C2830   1.399       .  A
C2829     Br2841   1.919       .  S
C2830      H2833   1.083       .  S
C2832      C2838   1.407       .  A
C2834      C2835   1.403       .  A
C2834      H2839   1.083       .  S
C2835     Br2843   1.918       .  S
C2836      C2837   1.403       .  A
C2837      C2838   1.392       .  A
C2837      H2840   1.083       .  S
C2838     Br2844   1.920       .  S
C2845      C2846   1.413       .  A
C2846      C2847   1.405       .  A
C2846     Br2862   1.918       .  S
C2847      C2848   1.404       .  A
C2847      H2851   1.083       .  S
C2848      C2849   1.406   1_565  A
C2848      C2852   1.484       .  S
C2850      H2853   1.083       .  S
C2852      C2858   1.407       .  A
C2854      C2855   1.402       .  A
C2854      H2859   1.084       .  S
C2855     Br2863   1.918       .  S
C2856      C2857   1.409       .  A
C2857      C2858   1.403       .  A
C2857      H2860   1.083       .  S
C2858     Br2864   1.917       .  S
C2865      C2870   1.407       .  A
C2866      C2867   1.401       .  A
C2866     Br2882   1.923       .  S
C2867      H2871   1.084       .  S
C2868      C2869   1.409       .  A
C2868      C2872   1.492       .  S
C2869      C2870   1.404       .  A
C2869     Br2881   1.912       .  S
C2870      H2873   1.083       .  S
C2872      C2874   1.406       .  A
C2874      C2875   1.404       .  A
C2874      H2879   1.083       .  S
C2875     Br2883   1.917       .  S
C2876      C2877   1.404       .  A
C2877      C2878   1.403       .  A
C2877      H2880   1.083       .  S
C2878     Br2884   1.919       .  S
C2885      C2886   1.408   1_455  A
C2886      C2887   1.399       .  A
C2886     Br2902   1.918       .  S
C2887      C2888   1.403   1_655  A
C2887      H2891   1.083       .  S
C2888      C2892   1.477       .  S
C2889      C2890   1.398       .  A
C2889     Br2901   1.918       .  S
C2890      H2893   1.083       .  S
C2892      C2894   1.402       .  A
C2892      C2898   1.407   1_455  A
C2894      C2895   1.400       .  A
C2894      H2899   1.083       .  S
C2895      C2896   1.413       .  A
C2895     Br2903   1.919       .  S
C2896      C2897   1.405   1_455  A
C2897      C2898   1.398       .  A
C2897      H2900   1.084       .  S
C2905      C2906   1.413       .  A
C2905      C2910   1.399       .  A
C2906      C2907   1.397       .  A
C2906     Br2922   1.922       .  S
C2907      C2908   1.399       .  A
C2907      H2911   1.083       .  S
C2908      C2909   1.408       .  A
C2908      C2912   1.471       .  S
C2909      C2910   1.396       .  A
C2909     Br2921   1.920       .  S
C2910      H2913   1.081       .  S
C2912      C2914   1.399       .  A
C2912      C2918   1.404       .  A
C2914      C2915   1.398       .  A
C2914      H2919   1.084       .  S
C2915      C2916   1.417       .  A
C2915     Br2923   1.921       .  S
C2916      C2917   1.407       .  A
C2917      C2918   1.396       .  A
C2917      H2920   1.084       .  S
C2918     Br2924   1.920       .  S
C2925      C2926   1.417       .  A
C2925      C2930   1.408       .  A
C2926      C2927   1.404       .  A
C2926     Br2942   1.912       .  S
C2927      C2928   1.400       .  A
C2927      H2931   1.084       .  S
C2928      C2929   1.408       .  A
C2928      C2932   1.486       .  S
C2929      C2930   1.402       .  A
C2929     Br2941   1.919       .  S
C2930      H2933   1.084       .  S
C2932      C2934   1.400       .  A
C2932      C2938   1.409       .  A
C2934      C2935   1.400       .  A
C2934      H2939   1.083       .  S
C2935      C2936   1.415       .  A
C2935     Br2943   1.922       .  S
C2936      C2937   1.407       .  A
C2937      C2938   1.406       .  A
C2937      H2940   1.083       .  S
C2938     Br2944   1.917       .  S
C2945      C2946   1.420       .  A
C2945      C2950   1.407       .  A
C2946      C2947   1.400       .  A
C2946     Br2962   1.920       .  S
C2947      C2948   1.400       .  A
C2947      H2951   1.084       .  S
C2948      C2949   1.406       .  A
C2948      C2952   1.480       .  S
C2949      C2950   1.397       .  A
C2949     Br2961   1.919       .  S
C2950      H2953   1.080       .  S
C2952      C2954   1.400       .  A
C2952      C2958   1.411       .  A
C2954      C2955   1.397       .  A
C2954      H2959   1.084       .  S
C2955      C2956   1.413       .  A
C2955     Br2963   1.920       .  S
C2956      C2957   1.403       .  A
C2957      C2958   1.401       .  A
C2957      H2960   1.083       .  S
C2958     Br2964   1.919       .  S
C2965      C2966   1.417       .  A
C2965      C2970   1.407       .  A
C2966      C2967   1.399       .  A
C2966     Br2982   1.916       .  S
C2967      C2968   1.398       .  A
C2967      H2971   1.084       .  S
C2968      C2969   1.407       .  A
C2968      C2972   1.479       .  S
C2969      C2970   1.401       .  A
C2969     Br2981   1.917       .  S
C2970      H2973   1.084       .  S
C2972      C2974   1.403       .  A
C2972      C2978   1.408       .  A
C2974      C2975   1.403       .  A
C2974      H2979   1.083       .  S
C2975      C2976   1.411       .  A
C2975     Br2983   1.918       .  S
C2976      C2977   1.401       .  A
C2977      C2978   1.398       .  A
C2977      H2980   1.083       .  S
C2978     Br2984   1.918       .  S
C2985      C2986   1.413       .  A
C2985      C2990   1.408       .  A
C2986      C2987   1.398       .  A
C2986     Br3002   1.919       .  S
C2987      C2988   1.404       .  A
C2987      H2991   1.084       .  S
C2988      C2989   1.414       .  A
C2988      C2992   1.497       .  S
C2989      C2990   1.407       .  A
C2989     Br3001   1.919       .  S
C2990      H2993   1.083       .  S
C2992      C2994   1.405       .  A
C2992      C2998   1.416       .  A
C2994      C2995   1.398       .  A
C2994      H2999   1.084       .  S
C2995      C2996   1.409       .  A
C2995     Br3003   1.917       .  S
C2996      C2997   1.405       .  A
C2997      C2998   1.409       .  A
C2997      H3000   1.083       .  S
C2998     Br3004   1.919       .  S
C3005      C3006   1.410       .  A
C3005      C3010   1.408       .  A
C3006      C3007   1.402       .  A
C3006     Br3022   1.908       .  S
C3007      C3008   1.403       .  A
C3007      H3011   1.084       .  S
C3008      C3009   1.408       .  A
C3008      C3012   1.486       .  S
C3009      C3010   1.403       .  A
C3009     Br3021   1.918       .  S
C3010      H3013   1.084       .  S
C3012      C3014   1.403       .  A
C3012      C3018   1.410       .  A
C3014      C3015   1.401       .  A
C3014      H3019   1.083       .  S
C3015      C3016   1.409       .  A
C3015     Br3023   1.916       .  S
C3016      C3017   1.403       .  A
C3017      C3018   1.402       .  A
C3017      H3020   1.083       .  S
C3018     Br3024   1.918       .  S
C3025      C3026   1.410       .  A
C3026      C3027   1.388       .  A
C3026     Br3042   1.920       .  S
C3027      C3028   1.395       .  A
C3027      H3031   1.084       .  S
C3028      C3032   1.466       .  S
C3029      C3030   1.402       .  A
C3029     Br3041   1.916       .  S
C3030      H3033   1.084       .  S
C3032      C3038   1.400       .  A
C3034      C3035   1.396       .  A
C3034      H3039   1.084       .  S
C3035     Br3043   1.925       .  S
C3036      C3037   1.414       .  A
C3037      C3038   1.395       .  A
C3037      H3040   1.074       .  S
C3038     Br3044   1.921       .  S
C3045      C3046   1.407   1_455  A
C3046      C3047   1.400       .  A
C3046     Br3062   1.916       .  S
C3047      C3048   1.406   1_655  A
C3047      H3051   1.083       .  S
C3048      C3052   1.492       .  S
C3049      C3050   1.400       .  A
C3049     Br3061   1.921       .  S
C3050      H3053   1.084       .  S
C3052      C3058   1.417   1_455  A
C3054      C3055   1.396       .  A
C3054      H3059   1.084       .  S
C3055     Br3063   1.922       .  S
C3056      C3057   1.403   1_455  A
C3057      C3058   1.405       .  A
C3057      H3060   1.084       .  S
C3058     Br3064   1.920       .  S
C3065      C3066   1.417       .  A
C3065      C3070   1.411       .  A
C3066      C3067   1.406       .  A
C3066     Br3082   1.920       .  S
C3067      C3068   1.403       .  A
C3067      H3071   1.083       .  S
C3068      C3069   1.406       .  A
C3068      C3072   1.487       .  S
C3069      C3070   1.402       .  A
C3069     Br3081   1.919       .  S
C3070      H3073   1.083       .  S
C3072      C3074   1.405       .  A
C3072      C3078   1.407       .  A
C3074      C3075   1.407       .  A
C3074      H3079   1.084       .  S
C3075      C3076   1.413       .  A
C3075     Br3083   1.916       .  S
C3076      C3077   1.407       .  A
C3077      C3078   1.399       .  A
C3077      H3080   1.084       .  S
C3078     Br3084   1.920       .  S
C3085      C3086   1.414       .  A
C3085      C3090   1.405       .  A
C3086      C3087   1.396       .  A
C3086     Br3102   1.922       .  S
C3087      C3088   1.400       .  A
C3087      H3091   1.083       .  S
C3088      C3089   1.409       .  A
C3088      C3092   1.481       .  S
C3089      C3090   1.404       .  A
C3089     Br3101   1.917       .  S
C3090      H3093   1.081       .  S
C3092      C3094   1.398       .  A
C3092      C3098   1.410       .  A
C3094      C3095   1.396       .  A
C3094      H3099   1.084       .  S
C3095      C3096   1.418       .  A
C3095     Br3103   1.925       .  S
C3096      C3097   1.406       .  A
C3097      C3098   1.406       .  A
C3097      H3100   1.083       .  S
C3098     Br3104   1.917       .  S
C3105      C3106   1.412   1_545  A
C3106      C3107   1.404       .  A
C3106     Br3122   1.916       .  S
C3107      C3108   1.404       .  A
C3107      H3111   1.084       .  S
C3108      C3112   1.480       .  S
C3109      C3110   1.396       .  A
C3109     Br3121   1.920       .  S
C3110      H3113   1.084       .  S
C3112      C3118   1.407       .  A
C3114      C3115   1.401       .  A
C3114      H3119   1.083       .  S
C3115     Br3123   1.920       .  S
C3116      C3117   1.407       .  A
C3117      C3118   1.400       .  A
C3117      H3120   1.083       .  S
C3118     Br3124   1.919       .  S
C3125      C3130   1.404   1_545  A
C3126      C3127   1.403       .  A
C3126     Br3142   1.920       .  S
C3127      H3131   1.084       .  S
C3128      C3129   1.414   1_545  A
C3128      C3132   1.496       .  S
C3129      C3130   1.407       .  A
C3129     Br3141   1.918       .  S
C3130      H3133   1.084       .  S
C3132      C3134   1.407   1_545  A
C3134      C3135   1.408       .  A
C3134      H3139   1.083       .  S
C3135     Br3143   1.919       .  S
C3136      C3137   1.408       .  A
C3137      C3138   1.402       .  A
C3137      H3140   1.083       .  S
C3138     Br3144   1.920       .  S
C3145      C3146   1.416       .  A
C3145      C3150   1.408       .  A
C3146      C3147   1.403       .  A
C3146     Br3162   1.921       .  S
C3147      C3148   1.404       .  A
C3147      H3151   1.083       .  S
C3148      C3149   1.405       .  A
C3148      C3152   1.480       .  S
C3149      C3150   1.395       .  A
C3149     Br3161   1.920       .  S
C3150      H3153   1.083       .  S
C3152      C3154   1.399       .  A
C3152      C3158   1.403       .  A
C3154      C3155   1.400       .  A
C3154      H3159   1.084       .  S
C3155      C3156   1.424       .  A
C3155     Br3163   1.925       .  S
C3156      C3157   1.415       .  A
C3157      C3158   1.398       .  A
C3157      H3160   1.077       .  S
C3158     Br3164   1.920       .  S
C3165      C3166   1.413       .  A
C3165      C3170   1.406       .  A
C3166      C3167   1.404       .  A
C3166     Br3182   1.917       .  S
C3167      C3168   1.405       .  A
C3167      H3171   1.083       .  S
C3168      C3169   1.408       .  A
C3168      C3172   1.484       .  S
C3169      C3170   1.396       .  A
C3169     Br3181   1.921       .  S
C3170      H3173   1.083       .  S
C3172      C3174   1.404       .  A
C3172      C3178   1.406       .  A
C3174      C3175   1.404       .  A
C3174      H3179   1.084       .  S
C3175      C3176   1.419       .  A
C3175     Br3183   1.922       .  S
C3176      C3177   1.411       .  A
C3177      C3178   1.396       .  A
C3177      H3180   1.083       .  S
C3178     Br3184   1.922       .  S
C3185      C3186   1.419       .  A
C3185      C3190   1.406       .  A
C3186      C3187   1.399       .  A
C3186     Br3202   1.924       .  S
C3187      C3188   1.399       .  A
C3187      H3191   1.084       .  S
C3188      C3189   1.405       .  A
C3188      C3192   1.478       .  S
C3189      C3190   1.400       .  A
C3189     Br3201   1.914       .  S
C3190      H3193   1.081       .  S
C3192      C3194   1.402       .  A
C3192      C3198   1.408       .  A
C3194      C3195   1.400       .  A
C3194      H3199   1.083       .  S
C3195      C3196   1.408       .  A
C3195     Br3203   1.918       .  S
C3196      C3197   1.403       .  A
C3197      C3198   1.400       .  A
C3197      H3200   1.084       .  S
C3198     Br3204   1.918       .  S
C3205      C3206   1.419       .  A
C3205      C3210   1.411       .  A
C3206      C3207   1.399       .  A
C3206     Br3222   1.921       .  S
C3207      C3208   1.399       .  A
C3207      H3211   1.084       .  S
C3208      C3209   1.403       .  A
C3208      C3212   1.474       .  S
C3209      C3210   1.398       .  A
C3209     Br3221   1.918       .  S
C3210      H3213   1.083       .  S
C3212      C3214   1.403       .  A
C3212      C3218   1.407       .  A
C3214      C3215   1.400       .  A
C3214      H3219   1.084       .  S
C3215      C3216   1.407       .  A
C3215     Br3223   1.918       .  S
C3216      C3217   1.401       .  A
C3217      C3218   1.397       .  A
C3217      H3220   1.083       .  S
C3218     Br3224   1.918       .  S
C3225      C3226   1.409       .  A
C3225      C3230   1.403       .  A
C3226      C3227   1.400       .  A
C3226     Br3242   1.918       .  S
C3227      C3228   1.403       .  A
C3227      H3231   1.083       .  S
C3228      C3229   1.406       .  A
C3228      C3232   1.474       .  S
C3229      C3230   1.397       .  A
C3229     Br3241   1.919       .  S
C3230      H3233   1.082       .  S
C3232      C3234   1.403       .  A
C3232      C3238   1.404       .  A
C3234      C3235   1.402       .  A
C3234      H3239   1.083       .  S
C3235      C3236   1.412       .  A
C3235     Br3243   1.920       .  S
C3236      C3237   1.404       .  A
C3237      C3238   1.395       .  A
C3237      H3240   1.084       .  S
C3238     Br3244   1.918       .  S
C3245      C3246   1.407       .  A
C3245      C3250   1.402       .  A
C3246      C3247   1.400       .  A
C3246     Br3262   1.917       .  S
C3247      C3248   1.404       .  A
C3247      H3251   1.083       .  S
C3248      C3249   1.410       .  A
C3248      C3252   1.483       .  S
C3249      C3250   1.401       .  A
C3249     Br3261   1.919       .  S
C3250      H3253   1.083       .  S
C3252      C3254   1.403       .  A
C3252      C3258   1.406       .  A
C3254      C3255   1.405       .  A
C3254      H3259   1.084       .  S
C3255      C3256   1.419       .  A
C3255     Br3263   1.921       .  S
C3256      C3257   1.410       .  A
C3257      C3258   1.397       .  A
C3257      H3260   1.083       .  S
C3258     Br3264   1.921       .  S
C3265      C3270   1.401       .  A
C3266      C3267   1.404       .  A
C3266     Br3282   1.918       .  S
C3267      H3271   1.083       .  S
C3268      C3269   1.412       .  A
C3268      C3272   1.493       .  S
C3269      C3270   1.402       .  A
C3269     Br3281   1.919       .  S
C3270      H3273   1.081       .  S
C3272      C3274   1.407       .  A
C3274      C3275   1.408       .  A
C3274      H3279   1.083       .  S
C3275      C3276   1.417       .  A
C3275     Br3283   1.919       .  S
C3277      C3278   1.398       .  A
C3277      H3280   1.083       .  S
C3278     Br3284   1.922       .  S
C3285      C3290   1.403       .  A
C3286      C3287   1.398       .  A
C3286     Br3302   1.922       .  S
C3287      H3291   1.083       .  S
C3288      C3289   1.409       .  A
C3288      C3292   1.479       .  S
C3289      C3290   1.401       .  A
C3289     Br3301   1.918       .  S
C3290      H3293   1.083       .  S
C3292      C3294   1.402       .  A
C3294      C3295   1.400       .  A
C3294      H3299   1.084       .  S
C3295      C3296   1.407       .  A
C3295     Br3303   1.903       .  S
C3297      C3298   1.399       .  A
C3297      H3300   1.084       .  S
C3298     Br3304   1.919       .  S
C3305      C3306   1.413       .  A
C3305      C3310   1.408       .  A
C3306      C3307   1.401       .  A
C3306     Br3322   1.917       .  S
C3307      C3308   1.404       .  A
C3307      H3311   1.083       .  S
C3308      C3309   1.406       .  A
C3308      C3312   1.483       .  S
C3309      C3310   1.397       .  A
C3309     Br3321   1.920       .  S
C3310      H3313   1.083       .  S
C3312      C3314   1.400       .  A
C3312      C3318   1.403       .  A
C3314      C3315   1.403       .  A
C3314      H3319   1.084       .  S
C3315      C3316   1.424       .  A
C3315     Br3323   1.922       .  S
C3316      C3317   1.415       .  A
C3317      C3318   1.396       .  A
C3317      H3320   1.076       .  S
C3318     Br3324   1.922       .  S
C3325      C3326   1.415       .  A
C3325      C3330   1.407       .  A
C3326      C3327   1.400       .  A
C3326     Br3342   1.920       .  S
C3327      C3328   1.400       .  A
C3327      H3331   1.083       .  S
C3328      C3329   1.404       .  A
C3328      C3332   1.472       .  S
C3329      C3330   1.395       .  A
C3329     Br3341   1.920       .  S
C3330      H3333   1.084       .  S
C3332      C3334   1.401       .  A
C3332      C3338   1.406       .  A
C3334      C3335   1.395       .  A
C3334      H3339   1.084       .  S
C3335      C3336   1.406       .  A
C3335     Br3343   1.916       .  S
C3336      C3337   1.403       .  A
C3337      C3338   1.400       .  A
C3337      H3340   1.084       .  S
C3338     Br3344   1.917       .  S
