geometry optimzed in LAMMPS
_audit_creation_date              2020-12-01 
_audit_creation_method            'lammps2cif' 
_symmetry_space_group_name_H-M    'P1' 
_symmetry_Int_Tables_number       1 
_symmetry_cell_setting            triclinic 
loop_ 
_symmetry_equiv_pos_as_xyz 
  x,y,z 
_cell_length_a                    39.06582696 
_cell_length_b                    39.80541054540995 
_cell_length_c                    23.755804992513134 
_cell_angle_alpha                 90.13936744880682 
_cell_angle_beta                  89.72648789849366 
_cell_angle_gamma                 119.59306977956295 
loop_ 
_atom_site_label 
_atom_site_type_symbol 
_atom_site_fract_x 
_atom_site_fract_y 
_atom_site_fract_z 
_atom_site_charge 
O1          O  0.32707288  0.21485490  0.42274553    -0.85100
O2          O  0.25960056  0.15157516  0.46146276    -0.82100
C3          C  0.25495248  0.12296955  0.43225004     0.98400
O4          O  0.27837643  0.10996372  0.43764434    -0.82200
O5          O  0.34760868  0.10970378  0.45895723    -0.84800
C6          C  0.37339809  0.13162478  0.42368597     1.02900
O7          O  0.38687583  0.16763063  0.42464938    -0.77600
O8          O  0.38903641  0.23671584  0.44463219    -0.77800
C9          C  0.36312013  0.23717198  0.41332658     1.02900
O10         O  0.34977772  0.24214523  0.53565804    -0.85100
O11         O  0.28580037  0.17542145  0.57479416    -0.82100
C12         C  0.26345855  0.14010660  0.58502127     0.98400
O13         O  0.26616960  0.11465540  0.55621567    -0.82200
O14         O  0.33847818  0.12033147  0.57721276    -0.84800
C15         C  0.37536812  0.13463386  0.57844797     1.02900
O16         O  0.39651291  0.15892582  0.54146083    -0.77600
O17         O  0.39123563  0.22379059  0.56417001    -0.77700
C18         C  0.37735208  0.24629661  0.56776477     1.02800
Cr19       Cr  0.30774091  0.19388987  0.49875496     1.93700
Cr20       Cr  0.30965784  0.11770143  0.50697221     1.93200
Cr21       Cr  0.38670301  0.19479033  0.49417815     1.39100
O22         O  0.33462881  0.16865852  0.49958187    -1.22800
C23         C  0.49614664  0.99347074  0.21625131    -0.02200
C24         C  0.49974186  0.99813755  0.77828709    -0.02200
C25         C  0.49690749  0.99565175  0.84450493    -0.11700
C26         C  0.46480547  0.49284914  0.87780798     0.03800
C27         C  0.46529711  0.48987072  0.93657664    -0.12200
C28         C  0.99790392  0.99279632  0.96533521     0.18600
C29         C  0.02854104  0.99340450  0.93294445    -0.09300
C30         C  0.02582768  0.99129110  0.87419499    -0.02200
H31         H  0.43986013  0.48588994  0.96041306     0.05200
C32         C  0.99844584  0.99406035  0.02851439     0.20600
H33         H  0.04890092  0.98960140  0.85145569     0.10300
C34         C  0.00930672  0.47074726  0.05919073    -0.15600
C35         C  0.01151135  0.47210733  0.11817985     0.03300
C36         C  0.49841930  0.99430880  0.14985546    -0.10900
C37         C  0.48475784  0.01534881  0.11775020    -0.01000
C38         C  0.48688690  0.01724772  0.05904746    -0.06100
H39         H  0.01667626  0.45136426  0.03704797     0.06300
H40         H  0.47202127  0.03104885  0.13715204     0.09700
Br41       Br  0.07707644  0.00126037  0.96486409    -0.05800
Br42       Br  0.41709631  0.49030526  0.85059761    -0.02800
Br43       Br  0.03377485  0.44291499  0.15031439     0.00100
Br44       Br  0.47546567  0.05423034  0.02426653    -0.04300
C45         C  0.39066619  0.11518902  0.38485539    -0.11700
C46         C  0.36928527  0.09113010  0.33972795     0.03800
C47         C  0.38575225  0.07318563  0.30722404    -0.12200
C48         C  0.42309348  0.07818372  0.32005935     0.18600
C49         C  0.44473351  0.10305410  0.36462660    -0.09300
C50         C  0.42856298  0.12154009  0.39616689    -0.02200
H51         H  0.36902077  0.05454397  0.27270152     0.05200
C52         C  0.43857174  0.05618541  0.28864563     0.20600
H53         H  0.44500819  0.13972316  0.43127215     0.10300
C54         C  0.47383725  0.07612220  0.25860049    -0.15600
C55         C  0.49217288  0.05692674  0.23445724     0.03300
C56         C  0.47472165  0.01571622  0.23870523    -0.10900
C57         C  0.43826522  0.99628093  0.26814448    -0.01000
C58         C  0.42028609  0.01580300  0.29205522    -0.06100
H59         H  0.48789080  0.10729980  0.25525907     0.06300
H60         H  0.42385920  0.46577742  0.27646481     0.09700
Br61       Br  0.49517553  0.11047929  0.38716730    -0.05800
Br62       Br  0.31768957  0.08212662  0.32135214    -0.02800
Br63       Br  0.04092187  0.09037504  0.19616612     0.00100
Br64       Br  0.37196591  0.48573408  0.33284416    -0.04300
C65         C  0.22106190  0.10464646  0.39272441    -0.11700
C66         C  0.20136902  0.06464501  0.38016638     0.03800
C67         C  0.16768285  0.04860058  0.34615815    -0.12200
C68         C  0.15286916  0.07154050  0.32427850     0.18600
C69         C  0.17263069  0.11134917  0.33592454    -0.09300
C70         C  0.20638878  0.12756015  0.36959282    -0.02200
H71         H  0.15205627  0.01775073  0.33844216     0.05200
C72         C  0.11420672  0.05272206  0.29556087     0.20600
H73         H  0.22081473  0.15821897  0.37860634     0.10300
C74         C  0.08025505  0.03841297  0.32845531    -0.15600
C75         C  0.04280225  0.01992619  0.30432656     0.03300
C76         C  0.03806411  0.01463645  0.24444823    -0.10900
C77         C  0.07324063  0.03042802  0.21192855    -0.01000
C78         C  0.11061920  0.04890853  0.23688256    -0.06100
H79         H  0.08298601  0.04145528  0.37381809     0.06300
H80         H  0.07244950  0.02939778  0.16658948     0.09700
Br81       Br  0.15326612  0.14421472  0.30895696    -0.05800
Br82       Br  0.21615833  0.02947152  0.41236551    -0.02800
Br83       Br  0.00046715  0.50077864  0.35849410     0.00100
Br84       Br  0.15619179  0.06884717  0.18916585    -0.04300
C85         C  0.37530930  0.26697825  0.36942095    -0.11700
C86         C  0.40342259  0.27206562  0.32808856     0.03800
C87         C  0.41947384  0.30492966  0.29371030    -0.12200
C88         C  0.40854645  0.33341703  0.30094326     0.18600
C89         C  0.37875724  0.32713004  0.34010478    -0.09300
C90         C  0.36207486  0.29384912  0.37346075    -0.02200
H91         H  0.44213340  0.30935108  0.26338948     0.05200
C92         C  0.43200016  0.37157109  0.27359921     0.20600
H93         H  0.34064984  0.29030661  0.40541953     0.10300
C94         C  0.41492590  0.38446958  0.23361306    -0.15600
C95         C  0.43509787  0.42247880  0.21292690     0.03300
C96         C  0.47347557  0.44942124  0.23354319    -0.10900
C97         C  0.49124300  0.43388911  0.26939665    -0.01000
C98         C  0.47088106  0.39634500  0.29020709    -0.06100
H99         H  0.38514983  0.36510750  0.21965448     0.06300
H100        H  0.02149039  0.45043235  0.28233381     0.09700
Br101      Br  0.36306969  0.36512707  0.35416917    -0.05800
Br102      Br  0.42120440  0.23531923  0.31793763    -0.02800
Br103      Br  0.40628652  0.43513783  0.15962294     0.00100
Br104      Br  0.49723214  0.38138422  0.34444992    -0.04300
C105        C  0.47668813  0.01822590  0.75482609    -0.11700
C106        C  0.44601778  0.00436921  0.71304240     0.03800
C107        C  0.43086694  0.02788443  0.69506148    -0.12200
C108        C  0.44484043  0.06514201  0.71553314     0.18600
C109        C  0.47397245  0.07919734  0.75689559    -0.09300
C110        C  0.48935141  0.05611419  0.77597128    -0.02200
H111        H  0.40847917  0.01747850  0.66263122     0.05200
C112        C  0.43063457  0.08931986  0.68822495     0.20600
H113        H  0.51184164  0.06816102  0.80802890     0.10300
C114        C  0.39365655  0.08453539  0.70282613    -0.15600
C115        C  0.37564303  0.10054615  0.66966148     0.03300
C116        C  0.39455726  0.12127152  0.62009008    -0.10900
C117        C  0.43267973  0.12771409  0.60778921    -0.01000
C118        C  0.45054999  0.11188485  0.64108752    -0.06100
H119        H  0.37813511  0.06709529  0.73908777     0.06300
H120        H  0.44813875  0.14363777  0.57044008     0.09700
Br121      Br  0.49386494  0.12990535  0.78802606    -0.05800
Br122      Br  0.42187488  0.45659244  0.67200906    -0.02800
Br123      Br  0.32549284  0.09289743  0.69480775     0.00100
Br124      Br  0.50087255  0.11902562  0.61785940    -0.04300
C125        C  0.04284997  0.02604671  0.75579780    -0.11700
C126        C  0.05297254  0.02851633  0.69733061     0.03800
C127        C  0.09196341  0.05118104  0.67931628    -0.12200
C128        C  0.12206524  0.07310112  0.71704905     0.18600
C129        C  0.11246337  0.07473305  0.77344597    -0.09300
C130        C  0.07328615  0.05276551  0.79175621    -0.02200
H131        H  0.09910742  0.05116761  0.63515251     0.05200
C132        C  0.16287406  0.09432840  0.69506578     0.20600
H133        H  0.06722642  0.05724564  0.83462417     0.10300
C134        C  0.17627937  0.13054408  0.67000871    -0.15600
C135        C  0.21066157  0.14752308  0.63717919     0.03300
C136        C  0.23195385  0.12768339  0.62826006    -0.10900
C137        C  0.21970872  0.09256906  0.65653338    -0.01000
C138        C  0.18569573  0.07603792  0.68994675    -0.06100
H139        H  0.15870948  0.14466706  0.67344270     0.06300
H140        H  0.23586449  0.07715057  0.65095295     0.09700
Br141      Br  0.15206418  0.10629687  0.82686264    -0.05800
Br142      Br  0.01723676  0.50094567  0.63776590    -0.02800
Br143      Br  0.22392041  0.19554625  0.60093112     0.00100
Br144      Br  0.17028748  0.02731743  0.72507010    -0.04300
C145        C  0.39528835  0.27951749  0.60647083    -0.11700
C146        C  0.39960094  0.27526457  0.66449252     0.03800
C147        C  0.41717047  0.30801735  0.69933214    -0.12200
C148        C  0.43117676  0.34513344  0.67676413     0.18600
C149        C  0.42738613  0.34918994  0.61854672    -0.09300
C150        C  0.40901988  0.31654282  0.58422089    -0.02200
H151        H  0.41995625  0.30456880  0.74400722     0.05200
C152        C  0.44966519  0.37962816  0.71361508     0.20600
H153        H  0.40620166  0.32014188  0.53956625     0.10300
C154        C  0.49044479  0.40352819  0.71234721    -0.15600
C155        C  0.50831879  0.43986745  0.73834305     0.03300
C156        C  0.48454254  0.45509833  0.76044180    -0.10900
C157        C  0.44486343  0.42726599  0.77183483    -0.01000
C158        C  0.42715627  0.39033699  0.74752871    -0.06100
H159        H  0.50852095  0.39364490  0.69125166     0.06300
H160        H  0.42608960  0.43533973  0.79434396     0.09700
Br161      Br  0.44707725  0.39864821  0.58337046    -0.05800
Br162      Br  0.38030135  0.22530697  0.69810914    -0.02800
Br163      Br  0.06398485  0.46137773  0.74954928     0.00100
Br164      Br  0.37133544  0.35769313  0.75564453    -0.04300
O165        O  0.32707161  0.71485477  0.42274581    -0.85100
O166        O  0.25959782  0.65157589  0.46146127    -0.82100
C167        C  0.25494894  0.62296955  0.43224972     0.98400
O168        O  0.27837203  0.60996277  0.43764474    -0.82200
O169        O  0.34760344  0.60970154  0.45895815    -0.84800
C170        C  0.37339344  0.63162243  0.42368735     1.02900
O171        O  0.38687212  0.66762845  0.42465142    -0.77600
O172        O  0.38903451  0.73671452  0.44463503    -0.77800
C173        C  0.36311913  0.73717170  0.41332868     1.02900
O174        O  0.34977538  0.74214415  0.53565888    -0.85100
O175        O  0.28579683  0.67542143  0.57479319    -0.82100
C176        C  0.26345428  0.64010678  0.58502038     0.98400
O177        O  0.26616474  0.61465496  0.55621555    -0.82200
O178        O  0.33847219  0.62032946  0.57721407    -0.84800
C179        C  0.37536201  0.63463135  0.57845030     1.02900
O180        O  0.39650737  0.65892244  0.54146272    -0.77600
O181        O  0.39123141  0.72378763  0.56417262    -0.77700
C182        C  0.37734871  0.74629437  0.56776685     1.02800
Cr183      Cr  0.30773826  0.69388962  0.49875463     1.93700
Cr184      Cr  0.30965286  0.61769999  0.50697283     1.93200
Cr185      Cr  0.38669918  0.69478794  0.49418030     1.39100
O186        O  0.33462492  0.66865710  0.49958245    -1.22800
C187        C  0.49614396  0.49347054  0.21625013    -0.02200
C188        C  0.49973888  0.49813910  0.77828685    -0.02200
C189        C  0.49690495  0.49565295  0.84450461    -0.11700
C190        C  0.46480856  0.99284955  0.87780785     0.03800
C191        C  0.46529953  0.98987069  0.93657661    -0.12200
C192        C  0.99790258  0.49279862  0.96533464     0.18600
C193        C  0.02854054  0.49340883  0.93294362    -0.09300
C194        C  0.02582667  0.49129463  0.87419426    -0.02200
H195        H  0.43986294  0.98589125  0.96041258     0.05200
C196        C  0.99844457  0.49406246  0.02851365     0.20600
H197        H  0.04890061  0.48960632  0.85145473     0.10300
C198        C  0.00930646  0.97074418  0.05919205    -0.15600
C199        C  0.01151195  0.97210515  0.11818114     0.03300
C200        C  0.49841694  0.49430928  0.14985443    -0.10900
C201        C  0.48475435  0.51534851  0.11774961    -0.01000
C202        C  0.48688383  0.51724815  0.05904701    -0.06100
H203        H  0.01667437  0.95135982  0.03704971     0.06300
H204        H  0.47201635  0.53104720  0.13715175     0.09700
Br205      Br  0.07707754  0.50126878  0.96486289    -0.05800
Br206      Br  0.41710086  0.99030828  0.85059645    -0.02800
Br207      Br  0.03377432  0.94291187  0.15031595     0.00100
Br208      Br  0.47546022  0.55422934  0.02426673    -0.04300
C209        C  0.39066117  0.61518638  0.38485644    -0.11700
C210        C  0.36927823  0.59112317  0.33973375     0.03800
C211        C  0.38574559  0.57317917  0.30722962    -0.12200
C212        C  0.42308908  0.57818143  0.32006051     0.18600
C213        C  0.44473109  0.60305618  0.36462286    -0.09300
C214        C  0.42856025  0.62154205  0.39616282    -0.02200
H215        H  0.36901267  0.55453459  0.27271044     0.05200
C216        C  0.43856787  0.55618339  0.28864691     0.20600
H217        H  0.44500715  0.63972856  0.43126431     0.10300
C218        C  0.47383269  0.57612055  0.25860021    -0.15600
C219        C  0.49216879  0.55692569  0.23445651     0.03300
C220        C  0.47471835  0.51571528  0.23870453    -0.10900
C221        C  0.43826223  0.49627940  0.26814433    -0.01000
C222        C  0.42028300  0.51580095  0.29205658    -0.06100
H223        H  0.48788539  0.60729801  0.25525793     0.06300
H224        H  0.42386163  0.96577895  0.27646550     0.09700
Br225      Br  0.49517662  0.61048795  0.38715807    -0.05800
Br226      Br  0.31767938  0.58211340  0.32136417    -0.02800
Br227      Br  0.04091710  0.59037485  0.19616437     0.00100
Br228      Br  0.37196782  0.98573709  0.33284060    -0.04300
C229        C  0.22105839  0.60464647  0.39272456    -0.11700
C230        C  0.20136037  0.56464354  0.38017700     0.03800
C231        C  0.16767459  0.54859931  0.34616821    -0.12200
C232        C  0.15286619  0.57154096  0.32427804     0.18600
C233        C  0.17263248  0.61135101  0.33591465    -0.09300
C234        C  0.20639041  0.62756177  0.36958336    -0.02200
H235        H  0.15204408  0.51774855  0.33846012     0.05200
C236        C  0.11420393  0.55272345  0.29556006     0.20600
H237        H  0.22082024  0.65822172  0.37858982     0.10300
C238        C  0.08025217  0.53841310  0.32845450    -0.15600
C239        C  0.04279943  0.51992610  0.30432567     0.03300
C240        C  0.03806143  0.51463696  0.24444727    -0.10900
C241        C  0.07323805  0.53043005  0.21192759    -0.01000
C242        C  0.11061657  0.54891109  0.23688162    -0.06100
H243        H  0.08298303  0.54145463  0.37381741     0.06300
H244        H  0.07244705  0.52940064  0.16658848     0.09700
Br245      Br  0.15327410  0.64421887  0.30893511    -0.05800
Br246      Br  0.21614171  0.52946873  0.41239290    -0.02800
Br247      Br  0.00046997  0.00077966  0.35849498     0.00100
Br248      Br  0.15618921  0.56885121  0.18916476    -0.04300
C249        C  0.37530959  0.76697909  0.36942476    -0.11700
C250        C  0.40342265  0.77206628  0.32809213     0.03800
C251        C  0.41947428  0.80493056  0.29371441    -0.12200
C252        C  0.40854801  0.83341862  0.30094882     0.18600
C253        C  0.37876005  0.82713257  0.34011204    -0.09300
C254        C  0.36207678  0.79385113  0.37346683    -0.02200
H255        H  0.44213335  0.80935162  0.26339287     0.05200
C256        C  0.43200169  0.87157232  0.27360406     0.20600
H257        H  0.34065243  0.79030901  0.40542648     0.10300
C258        C  0.41492727  0.88447068  0.23361799    -0.15600
C259        C  0.43509972  0.92247945  0.21293020     0.03300
C260        C  0.47347780  0.94942168  0.23354547    -0.10900
C261        C  0.49124519  0.93388953  0.26939899    -0.01000
C262        C  0.47088298  0.89634578  0.29021055    -0.06100
H263        H  0.38515087  0.86510880  0.21966041     0.06300
H264        H  0.02149264  0.95043214  0.28233502     0.09700
Br265      Br  0.36307579  0.86513158  0.35418052    -0.05800
Br266      Br  0.42120406  0.73531963  0.31794066    -0.02800
Br267      Br  0.40628862  0.93513838  0.15962561     0.00100
Br268      Br  0.49723435  0.88138482  0.34445261    -0.04300
C269        C  0.47668365  0.51822623  0.75482745    -0.11700
C270        C  0.44601304  0.50436905  0.71304417     0.03800
C271        C  0.43086085  0.52788346  0.69506488    -0.12200
C272        C  0.44483294  0.56514042  0.71553840     0.18600
C273        C  0.47396471  0.57919585  0.75690109    -0.09300
C274        C  0.48934543  0.55611378  0.77597449    -0.02200
H275        H  0.40847319  0.51747747  0.66263444     0.05200
C276        C  0.43062689  0.58931816  0.68823081     0.20600
H277        H  0.51183564  0.56816078  0.80803213     0.10300
C278        C  0.39364746  0.58453132  0.70282883    -0.15600
C279        C  0.37563445  0.60054224  0.66966356     0.03300
C280        C  0.39455042  0.62126954  0.62009423    -0.10900
C281        C  0.43267434  0.62771482  0.60779722    -0.01000
C282        C  0.45054433  0.61188595  0.64109661    -0.06100
H283        H  0.37812476  0.56708946  0.73908842     0.06300
H284        H  0.44813497  0.64364050  0.57045025     0.09700
Br285      Br  0.49385422  0.62990247  0.78803533    -0.05800
Br286      Br  0.42187836  0.95659224  0.67200837    -0.02800
Br287      Br  0.32548276  0.59289132  0.69480647     0.00100
Br288      Br  0.50086963  0.61903126  0.61787398    -0.04300
C289        C  0.04284637  0.52604957  0.75579676    -0.11700
C290        C  0.05296852  0.52851946  0.69732938     0.03800
C291        C  0.09195917  0.55118475  0.67931456    -0.12200
C292        C  0.12206106  0.57310510  0.71704710     0.18600
C293        C  0.11245939  0.57473717  0.77344402    -0.09300
C294        C  0.07328235  0.55276912  0.79175470    -0.02200
H295        H  0.09910301  0.55117135  0.63515075     0.05200
C296        C  0.16286978  0.59433221  0.69506373     0.20600
H297        H  0.06722266  0.55724925  0.83462259     0.10300
C298        C  0.17627354  0.63054582  0.67000069    -0.15600
C299        C  0.21065588  0.64752385  0.63717164     0.03300
C300        C  0.23194942  0.62768489  0.62825827    -0.10900
C301        C  0.21970577  0.59257277  0.65653706    -0.01000
C302        C  0.18569303  0.57604300  0.68995098    -0.06100
H303        H  0.15870255  0.64466787  0.67343012     0.06300
H304        H  0.23586272  0.57715509  0.65096102     0.09700
Br305      Br  0.15206024  0.60630200  0.82685998    -0.05800
Br306      Br  0.01724092  0.00094298  0.63776676    -0.02800
Br307      Br  0.22391357  0.69554453  0.60091643     0.00100
Br308      Br  0.17028761  0.52732619  0.72508441    -0.04300
C309        C  0.39528516  0.77951503  0.60647322    -0.11700
C310        C  0.39959745  0.77526194  0.66449496     0.03800
C311        C  0.41716753  0.80801472  0.69933458    -0.12200
C312        C  0.43117454  0.84513091  0.67676648     0.18600
C313        C  0.42738391  0.84918747  0.61854911    -0.09300
C314        C  0.40901724  0.81654042  0.58422332    -0.02200
H315        H  0.41995322  0.80456610  0.74400959     0.05200
C316        C  0.44966402  0.87962571  0.71361719     0.20600
H317        H  0.40619917  0.82013959  0.53956869     0.10300
C318        C  0.49044381  0.90352445  0.71234947    -0.15600
C319        C  0.50831903  0.93986390  0.73834478     0.03300
C320        C  0.48454396  0.95509635  0.76044279    -0.10900
C321        C  0.44486440  0.92726521  0.77183582    -0.01000
C322        C  0.42715599  0.89033600  0.74753021    -0.06100
H323        H  0.50851916  0.89364002  0.69125440     0.06300
H324        H  0.42609126  0.93534016  0.79434448     0.09700
Br325      Br  0.44707572  0.89864569  0.58337254    -0.05800
Br326      Br  0.38029667  0.72530418  0.69811165    -0.02800
Br327      Br  0.06398485  0.96137237  0.74955070     0.00100
Br328      Br  0.37133487  0.85769394  0.75564561    -0.04300
O329        O  0.82707299  0.21485492  0.42274548    -0.85100
O330        O  0.75960066  0.15157518  0.46146269    -0.82100
C331        C  0.75495256  0.12296955  0.43225000     0.98400
O332        O  0.77837647  0.10996368  0.43764435    -0.82200
O333        O  0.84760871  0.10970374  0.45895723    -0.84800
C334        C  0.87339809  0.13162472  0.42368592     1.02900
O335        O  0.88687583  0.16763057  0.42464929    -0.77600
O336        O  0.88903651  0.23671582  0.44463213    -0.77800
C337        C  0.86312024  0.23717199  0.41332652     1.02900
O338        O  0.84977781  0.24214521  0.53565802    -0.85100
O339        O  0.78580041  0.17542145  0.57479411    -0.82100
C340        C  0.76345860  0.14010660  0.58502125     0.98400
O341        O  0.76616966  0.11465540  0.55621568    -0.82200
O342        O  0.83847826  0.12033149  0.57721276    -0.84800
C343        C  0.87536821  0.13463387  0.57844793     1.02900
O344        O  0.89651298  0.15892579  0.54146073    -0.77600
O345        O  0.89123575  0.22379058  0.56416992    -0.77700
C346        C  0.87735218  0.24629659  0.56776472     1.02800
Cr347      Cr  0.80774099  0.19388988  0.49875491     1.93700
Cr348      Cr  0.80965790  0.11770142  0.50697222     1.93200
Cr349      Cr  0.88670308  0.19479030  0.49417807     1.39100
O350        O  0.83462888  0.16865851  0.49958184    -1.22800
C351        C  0.99614657  0.99347064  0.21625131    -0.02200
C352        C  0.99974187  0.99813753  0.77828712    -0.02200
C353        C  0.99690751  0.99565173  0.84450495    -0.11700
C354        C  0.96480545  0.49284907  0.87780796     0.03800
C355        C  0.96529708  0.48987067  0.93657662    -0.12200
C356        C  0.49790391  0.99279636  0.96533519     0.18600
C357        C  0.52854106  0.99340462  0.93294445    -0.09300
C358        C  0.52582771  0.99129120  0.87419499    -0.02200
H359        H  0.93986008  0.48588980  0.96041299     0.05200
C360        C  0.49844581  0.99406039  0.02851438     0.20600
H361        H  0.54890096  0.98960155  0.85145573     0.10300
C362        C  0.50930663  0.47074711  0.05919069    -0.15600
C363        C  0.51151128  0.47210719  0.11817979     0.03300
C364        C  0.99841926  0.99430872  0.14985547    -0.10900
C365        C  0.98475787  0.01534879  0.11775020    -0.01000
C366        C  0.98688699  0.01724774  0.05904747    -0.06100
H367        H  0.51667610  0.45136402  0.03704788     0.06300
H368        H  0.97202133  0.03104887  0.13715206     0.09700
Br369      Br  0.57707651  0.00126062  0.96486411    -0.05800
Br370      Br  0.91709624  0.49030509  0.85059756    -0.02800
Br371      Br  0.53377467  0.44291475  0.15031432     0.00100
Br372      Br  0.97546596  0.05423048  0.02426654    -0.04300
C373        C  0.89066618  0.11518894  0.38485537    -0.11700
C374        C  0.86928531  0.09113012  0.33972782     0.03800
C375        C  0.88575228  0.07318563  0.30722393    -0.12200
C376        C  0.92309344  0.07818361  0.32005938     0.18600
C377        C  0.94473341  0.10305386  0.36462678    -0.09300
C378        C  0.92856290  0.12153988  0.39616703    -0.02200
H379        H  0.86902085  0.05454405  0.27270132     0.05200
C380        C  0.93857170  0.05618532  0.28864565     0.20600
H381        H  0.94500806  0.13972287  0.43127242     0.10300
C382        C  0.97383724  0.07612212  0.25860058    -0.15600
C383        C  0.99217285  0.05692664  0.23445729     0.03300
C384        C  0.97472158  0.01571612  0.23870521    -0.10900
C385        C  0.93826513  0.99628083  0.26814440    -0.01000
C386        C  0.92028601  0.01580290  0.29205517    -0.06100
H387        H  0.98789082  0.10729972  0.25525924     0.06300
H388        H  0.92385916  0.46577732  0.27646490     0.09700
Br389      Br  0.99517529  0.11047879  0.38716775    -0.05800
Br390      Br  0.81768966  0.08212672  0.32135187    -0.02800
Br391      Br  0.54092187  0.09037513  0.19616600     0.00100
Br392      Br  0.87196589  0.48573404  0.33284421    -0.04300
C393        C  0.72106200  0.10464650  0.39272432    -0.11700
C394        C  0.70136907  0.06464505  0.38016631     0.03800
C395        C  0.66768292  0.04860066  0.34615805    -0.12200
C396        C  0.65286928  0.07154062  0.32427836     0.18600
C397        C  0.67263087  0.11134930  0.33592438    -0.09300
C398        C  0.70638896  0.12756024  0.36959267    -0.02200
H399        H  0.65205630  0.01775081  0.33844208     0.05200
C400        C  0.61420684  0.05272221  0.29556075     0.20600
H401        H  0.72081495  0.15821906  0.37860618     0.10300
C402        C  0.58025518  0.03841310  0.32845522    -0.15600
C403        C  0.54280237  0.01992630  0.30432651     0.03300
C404        C  0.53806420  0.01463657  0.24444819    -0.10900
C405        C  0.57324071  0.03042818  0.21192847    -0.01000
C406        C  0.61061929  0.04890870  0.23688245    -0.06100
H407        H  0.58298615  0.04145540  0.37381798     0.06300
H408        H  0.57244957  0.02939795  0.16658942     0.09700
Br409      Br  0.65326637  0.14421490  0.30895681    -0.05800
Br410      Br  0.71615828  0.02947151  0.41236554    -0.02800
Br411      Br  0.50046708  0.50077840  0.35849405     0.00100
Br412      Br  0.65619187  0.06884735  0.18916571    -0.04300
C413        C  0.87530943  0.26697826  0.36942089    -0.11700
C414        C  0.90342282  0.27206571  0.32808860     0.03800
C415        C  0.91947405  0.30492976  0.29371035    -0.12200
C416        C  0.90854657  0.33341707  0.30094325     0.18600
C417        C  0.87875728  0.32713000  0.34010467    -0.09300
C418        C  0.86207490  0.29384907  0.37346061    -0.02200
H419        H  0.94213371  0.30935125  0.26338958     0.05200
C420        C  0.93200025  0.37157116  0.27359924     0.20600
H421        H  0.84064979  0.29030649  0.40541935     0.10300
C422        C  0.91492601  0.38446962  0.23361305    -0.15600
C423        C  0.93509794  0.42247885  0.21292692     0.03300
C424        C  0.97347563  0.44942132  0.23354325    -0.10900
C425        C  0.99124305  0.43388922  0.26939679    -0.01000
C426        C  0.97088113  0.39634511  0.29020724    -0.06100
H427        H  0.88514995  0.36510749  0.21965439     0.06300
H428        H  0.52149032  0.45043218  0.28233358     0.09700
Br429      Br  0.86306959  0.36512694  0.35416896    -0.05800
Br430      Br  0.92120480  0.23531945  0.31793781    -0.02800
Br431      Br  0.90628657  0.43513782  0.15962294     0.00100
Br432      Br  0.99723215  0.38138439  0.34445024    -0.04300
C433        C  0.97668816  0.01822591  0.75482611    -0.11700
C434        C  0.94601780  0.00436922  0.71304244     0.03800
C435        C  0.93086696  0.02788445  0.69506154    -0.12200
C436        C  0.94484049  0.06514204  0.71553317     0.18600
C437        C  0.97397253  0.07919736  0.75689560    -0.09300
C438        C  0.98935148  0.05611421  0.77597127    -0.02200
H439        H  0.90847916  0.01747850  0.66263126     0.05200
C440        C  0.93063465  0.08931990  0.68822496     0.20600
H441        H  0.01184175  0.06816105  0.80802891     0.10300
C442        C  0.89365665  0.08453548  0.70282616    -0.15600
C443        C  0.87564315  0.10054624  0.66966150     0.03300
C444        C  0.89455735  0.12127155  0.62009005    -0.10900
C445        C  0.93267981  0.12771408  0.60778917    -0.01000
C446        C  0.95055007  0.11188485  0.64108751    -0.06100
H447        H  0.87813522  0.06709542  0.73908783     0.06300
H448        H  0.94813882  0.14363773  0.57044001     0.09700
Br449      Br  0.99386507  0.12990539  0.78802603    -0.05800
Br450      Br  0.92187482  0.45659231  0.67200909    -0.02800
Br451      Br  0.82549301  0.09289765  0.69480784     0.00100
Br452      Br  0.00087262  0.11902559  0.61785941    -0.04300
C453        C  0.54284995  0.02604675  0.75579775    -0.11700
C454        C  0.55297252  0.02851635  0.69733056     0.03800
C455        C  0.59196339  0.05118107  0.67931621    -0.12200
C456        C  0.62206523  0.07310117  0.71704897     0.18600
C457        C  0.61246335  0.07473312  0.77344588    -0.09300
C458        C  0.57328613  0.05276558  0.79175613    -0.02200
H459        H  0.59910739  0.05116762  0.63515246     0.05200
C460        C  0.66287405  0.09432842  0.69506569     0.20600
H461        H  0.56722641  0.05724572  0.83462404     0.10300
C462        C  0.67627940  0.13054412  0.67000863    -0.15600
C463        C  0.71066162  0.14752311  0.63717914     0.03300
C464        C  0.73195388  0.12768340  0.62826002    -0.10900
C465        C  0.71970872  0.09256906  0.65653334    -0.01000
C466        C  0.68569571  0.07603793  0.68994669    -0.06100
H467        H  0.65870957  0.14466709  0.67344260     0.06300
H468        H  0.73586444  0.07715059  0.65095295     0.09700
Br469      Br  0.65206417  0.10629697  0.82686252    -0.05800
Br470      Br  0.51723685  0.50094602  0.63776592    -0.02800
Br471      Br  0.72392053  0.19554631  0.60093112     0.00100
Br472      Br  0.67028743  0.02731745  0.72507007    -0.04300
C473        C  0.89528844  0.27951747  0.60647079    -0.11700
C474        C  0.89960101  0.27526454  0.66449248     0.03800
C475        C  0.91717049  0.30801731  0.69933213    -0.12200
C476        C  0.93117675  0.34513340  0.67676414     0.18600
C477        C  0.92738614  0.34918991  0.61854673    -0.09300
C478        C  0.90901993  0.31654279  0.58422087    -0.02200
H479        H  0.91995626  0.30456875  0.74400720     0.05200
C480        C  0.94966517  0.37962811  0.71361511     0.20600
H481        H  0.90620172  0.32014186  0.53956624     0.10300
C482        C  0.99044477  0.40352811  0.71234736    -0.15600
C483        C  0.00831876  0.43986734  0.73834327     0.03300
C484        C  0.98454249  0.45509825  0.76044192    -0.10900
C485        C  0.94486337  0.42726593  0.77183489    -0.01000
C486        C  0.92715622  0.39033695  0.74752874    -0.06100
H487        H  0.00852095  0.39364481  0.69125189     0.06300
H488        H  0.92608942  0.43533972  0.79434411     0.09700
Br489      Br  0.94707719  0.39864817  0.58337049    -0.05800
Br490      Br  0.88030145  0.22530694  0.69810908    -0.02800
Br491      Br  0.56398493  0.46137791  0.74954866     0.00100
Br492      Br  0.87133540  0.35769310  0.75564446    -0.04300
O493        O  0.82707154  0.71485472  0.42274584    -0.85100
O494        O  0.75959773  0.65157589  0.46146136    -0.82100
C495        C  0.75494884  0.62296954  0.43224984     0.98400
O496        O  0.77837192  0.60996274  0.43764488    -0.82200
O497        O  0.84760331  0.60970148  0.45895824    -0.84800
C498        C  0.87339332  0.63162237  0.42368745     1.02900
O499        O  0.88687203  0.66762840  0.42465155    -0.77600
O500        O  0.88903444  0.73671448  0.44463512    -0.77800
C501        C  0.86311906  0.73717166  0.41332874     1.02900
O502        O  0.84977532  0.74214416  0.53565889    -0.85100
O503        O  0.78579676  0.67542147  0.57479325    -0.82100
C504        C  0.76345421  0.64010683  0.58502049     0.98400
O505        O  0.76616465  0.61465498  0.55621573    -0.82200
O506        O  0.83847208  0.62032941  0.57721418    -0.84800
C507        C  0.87536190  0.63463129  0.57845041     1.02900
O508        O  0.89650726  0.65892240  0.54146286    -0.77600
O509        O  0.89123130  0.72378759  0.56417272    -0.77700
C510        C  0.87734862  0.74629436  0.56776690     1.02800
Cr511      Cr  0.80773819  0.69388961  0.49875468     1.93700
Cr512      Cr  0.80965275  0.61769996  0.50697296     1.93200
Cr513      Cr  0.88669909  0.69478790  0.49418042     1.39100
O514        O  0.83462483  0.66865707  0.49958256    -1.22800
C515        C  0.99614397  0.49347063  0.21625018    -0.02200
C516        C  0.99973887  0.49813904  0.77828684    -0.02200
C517        C  0.99690498  0.49565298  0.84450462    -0.11700
C518        C  0.96480861  0.99284961  0.87780789     0.03800
C519        C  0.96529958  0.98987074  0.93657665    -0.12200
C520        C  0.49790257  0.49279855  0.96533461     0.18600
C521        C  0.52854046  0.49340862  0.93294356    -0.09300
C522        C  0.52582655  0.49129443  0.87419421    -0.02200
H523        H  0.93986299  0.98589137  0.96041267     0.05200
C524        C  0.49844460  0.49406240  0.02851361     0.20600
H525        H  0.54890045  0.48960603  0.85145460     0.10300
C526        C  0.50930651  0.97074429  0.05919204    -0.15600
C527        C  0.51151202  0.97210527  0.11818113     0.03300
C528        C  0.99841695  0.49430935  0.14985447    -0.10900
C529        C  0.98475425  0.51534849  0.11774965    -0.01000
C530        C  0.98688369  0.51724811  0.05904704    -0.06100
H531        H  0.51667446  0.95135997  0.03704973     0.06300
H532        H  0.97201620  0.53104707  0.13715173     0.09700
Br533      Br  0.57707741  0.50126842  0.96486278    -0.05800
Br534      Br  0.91710096  0.99030846  0.85059652    -0.02800
Br535      Br  0.53377444  0.94291204  0.15031593     0.00100
Br536      Br  0.97545980  0.55422912  0.02426677    -0.04300
C537        C  0.89066103  0.61518631  0.38485652    -0.11700
C538        C  0.86927804  0.59112300  0.33973394     0.03800
C539        C  0.88574541  0.57317903  0.30722977    -0.12200
C540        C  0.92308897  0.57818141  0.32006050     0.18600
C541        C  0.94473104  0.60305628  0.36462271    -0.09300
C542        C  0.92856018  0.62154212  0.39616271    -0.02200
H543        H  0.86901246  0.55453439  0.27271071     0.05200
C544        C  0.93856778  0.55618340  0.28864688     0.20600
H545        H  0.94500715  0.63972872  0.43126411     0.10300
C546        C  0.97383258  0.57612056  0.25860014    -0.15600
C547        C  0.99216872  0.55692574  0.23445648     0.03300
C548        C  0.97471832  0.51571532  0.23870456    -0.10900
C549        C  0.93826221  0.49627941  0.26814437    -0.01000
C550        C  0.92028295  0.51580094  0.29205660    -0.06100
H551        H  0.98788527  0.60729807  0.25525780     0.06300
H552        H  0.92386151  0.96577884  0.27646537     0.09700
Br553      Br  0.99517669  0.61048825  0.38715772    -0.05800
Br554      Br  0.81767910  0.58211306  0.32136456    -0.02800
Br555      Br  0.54091720  0.59037480  0.19616446     0.00100
Br556      Br  0.87196773  0.98573700  0.33284051    -0.04300
C557        C  0.72105831  0.60464645  0.39272467    -0.11700
C558        C  0.70136027  0.56464351  0.38017718     0.03800
C559        C  0.66767451  0.54859927  0.34616835    -0.12200
C560        C  0.65286614  0.57154092  0.32427808     0.18600
C561        C  0.67263244  0.61135098  0.33591464    -0.09300
C562        C  0.70639035  0.62756174  0.36958339    -0.02200
H563        H  0.65204399  0.51774851  0.33846030     0.05200
C564        C  0.61420389  0.55272340  0.29556008     0.20600
H565        H  0.72082019  0.65822170  0.37858980     0.10300
C566        C  0.58025212  0.53841300  0.32845449    -0.15600
C567        C  0.54279939  0.51992595  0.30432564     0.03300
C568        C  0.53806141  0.51463684  0.24444724    -0.10900
C569        C  0.57323804  0.53042992  0.21192758    -0.01000
C570        C  0.61061655  0.54891100  0.23688164    -0.06100
H571        H  0.58298296  0.54145452  0.37381741     0.06300
H572        H  0.57244705  0.52940048  0.16658847     0.09700
Br573      Br  0.65327410  0.64421885  0.30893499    -0.05800
Br574      Br  0.71614156  0.52946871  0.41239322    -0.02800
Br575      Br  0.50047011  0.00077972  0.35849497     0.00100
Br576      Br  0.65618921  0.56885112  0.18916482    -0.04300
C577        C  0.87530953  0.76697904  0.36942482    -0.11700
C578        C  0.90342258  0.77206622  0.32809220     0.03800
C579        C  0.91947422  0.80493049  0.29371446    -0.12200
C580        C  0.90854791  0.83341853  0.30094882     0.18600
C581        C  0.87875995  0.82713249  0.34011200    -0.09300
C582        C  0.86207670  0.79385107  0.37346684    -0.02200
H583        H  0.94213326  0.80935153  0.26339296     0.05200
C584        C  0.93200161  0.87157222  0.27360405     0.20600
H585        H  0.84065236  0.79030896  0.40542645     0.10300
C586        C  0.91492720  0.88447057  0.23361793    -0.15600
C587        C  0.93509965  0.92247935  0.21293016     0.03300
C588        C  0.97347771  0.94942157  0.23354546    -0.10900
C589        C  0.99124509  0.93388943  0.26939902    -0.01000
C590        C  0.97088288  0.89634569  0.29021058    -0.06100
H591        H  0.88515083  0.86510871  0.21966034     0.06300
H592        H  0.52149279  0.95043227  0.28233499     0.09700
Br593      Br  0.86307562  0.86513146  0.35418033    -0.05800
Br594      Br  0.92120400  0.73531957  0.31794075    -0.02800
Br595      Br  0.90628858  0.93513828  0.15962554     0.00100
Br596      Br  0.99723423  0.88138474  0.34445270    -0.04300
C597        C  0.97668362  0.51822615  0.75482740    -0.11700
C598        C  0.94601299  0.50436895  0.71304414     0.03800
C599        C  0.93086077  0.52788333  0.69506486    -0.12200
C600        C  0.94483284  0.56514028  0.71553837     0.18600
C601        C  0.97396463  0.57919574  0.75690104    -0.09300
C602        C  0.98934538  0.55611370  0.77597443    -0.02200
H603        H  0.90847309  0.51747731  0.66263443     0.05200
C604        C  0.93062675  0.58931799  0.68823079     0.20600
H605        H  0.01183560  0.56816072  0.80803205     0.10300
C606        C  0.89364729  0.58453107  0.70282878    -0.15600
C607        C  0.87563428  0.60054203  0.66966355     0.03300
C608        C  0.89455029  0.62126943  0.62009431    -0.10900
C609        C  0.93267424  0.62771477  0.60779733    -0.01000
C610        C  0.95054422  0.61188587  0.64109668    -0.06100
H611        H  0.87812456  0.56708915  0.73908830     0.06300
H612        H  0.94813489  0.64364051  0.57045044     0.09700
Br613      Br  0.99385408  0.62990236  0.78803529    -0.05800
Br614      Br  0.92187837  0.95659225  0.67200841    -0.02800
Br615      Br  0.82548254  0.59289101  0.69480643     0.00100
Br616      Br  0.00086956  0.61903127  0.61787409    -0.04300
C617        C  0.54284640  0.52604966  0.75579688    -0.11700
C618        C  0.55296856  0.52851972  0.69732948     0.03800
C619        C  0.59195922  0.55118507  0.67931473    -0.12200
C620        C  0.62206110  0.57310527  0.71704735     0.18600
C621        C  0.61245942  0.57473713  0.77344434    -0.09300
C622        C  0.57328237  0.55276908  0.79175494    -0.02200
H623        H  0.59910308  0.55117181  0.63515083     0.05200
C624        C  0.66286981  0.59433244  0.69506400     0.20600
H625        H  0.56722267  0.55724910  0.83462292     0.10300
C626        C  0.67627330  0.63054582  0.67000032    -0.15600
C627        C  0.71065560  0.64752379  0.63717118     0.03300
C628        C  0.73194937  0.62768502  0.62825838    -0.10900
C629        C  0.71970598  0.59257314  0.65653775    -0.01000
C630        C  0.68569328  0.57604343  0.68995177    -0.06100
H631        H  0.65870215  0.64466768  0.67342931     0.06300
H632        H  0.73586308  0.57715562  0.65096210     0.09700
Br633      Br  0.65206027  0.60630176  0.82686044    -0.05800
Br634      Br  0.51724090  0.00094298  0.63776673    -0.02800
Br635      Br  0.72391285  0.69554405  0.60091500     0.00100
Br636      Br  0.67028817  0.52732692  0.72508599    -0.04300
C637        C  0.89528506  0.77951501  0.60647330    -0.11700
C638        C  0.89959723  0.77526189  0.66449505     0.03800
C639        C  0.91716730  0.80801466  0.69933470    -0.12200
C640        C  0.93117440  0.84513087  0.67676660     0.18600
C641        C  0.92738388  0.84918746  0.61854921    -0.09300
C642        C  0.90901722  0.81654042  0.58422339    -0.02200
H643        H  0.91995291  0.80456602  0.74400974     0.05200
C644        C  0.94966392  0.87962566  0.71361732     0.20600
H645        H  0.90619923  0.82013960  0.53956879     0.10300
C646        C  0.99044371  0.90352438  0.71234954    -0.15600
C647        C  0.00831897  0.93986384  0.73834480     0.03300
C648        C  0.98454393  0.95509633  0.76044285    -0.10900
C649        C  0.94486437  0.92726522  0.77183593    -0.01000
C650        C  0.92715592  0.89033599  0.74753038    -0.06100
H651        H  0.00851906  0.89363991  0.69125443     0.06300
H652        H  0.92609116  0.93534025  0.79434470     0.09700
Br653      Br  0.94707582  0.89864570  0.58337265    -0.05800
Br654      Br  0.88029630  0.72530411  0.69811173    -0.02800
Br655      Br  0.56398491  0.96137245  0.74955076     0.00100
Br656      Br  0.87133482  0.85769395  0.75564590    -0.04300
loop_ 
_geom_bond_atom_site_label_1 
_geom_bond_atom_site_label_2 
_geom_bond_distance 
_geom_bond_site_symmetry_2 
_ccdc_geom_bond_type 
O1          Cr19   1.975       .  S
O1            C9   1.259       .  A
O2          Cr19   2.010       .  S
O2            C3   1.267       .  A
C3            O4   1.261       .  A
C3           C65   1.490       .  S
O4          Cr20   1.986       .  S
O5          Cr20   2.012       .  S
O5            C6   1.267       .  A
C6            O7   1.260       .  A
C6           C45   1.470       .  S
O7          Cr21   1.974       .  S
O8          Cr21   2.009       .  S
O8            C9   1.266       .  A
C9           C85   1.472       .  S
O10         Cr19   2.011       .  S
O10          C18   1.265       .  A
O11         Cr19   1.977       .  S
O11          C12   1.259       .  A
C12          O13   1.268       .  A
C12         C136   1.484       .  S
O13         Cr20   2.012       .  S
O14         Cr20   1.991       .  S
O14          C15   1.262       .  A
C15          O16   1.264       .  A
C15         C116   1.492       .  S
O16         Cr21   2.000       .  S
O17         Cr21   1.980       .  S
O17          C18   1.258       .  A
C18         C145   1.473       .  S
Cr19         O22   1.776       .  S
Cr20         O22   1.773       .  S
Cr21         O22   1.773       .  S
C23          C36   1.579       .  S
C23          C56   1.579   1_565  S
C23         C404   1.576   1_565  S
C23         C260   1.579       .  S
C24          C25   1.576       .  S
C24         C105   1.575   1_565  S
C24         C453   1.582   1_565  S
C24         C320   1.569       .  S
C25         C190   1.437       .  A
C25         C358   1.416       .  A
C26          C27   1.402       .  A
C26         C189   1.437       .  A
C26         Br42   1.930       .  S
C27         C520   1.401       .  A
C27          H31   1.083       .  S
C28          C32   1.501   1_556  S
C28          C29   1.410   1_655  A
C28         C519   1.401       .  A
C29          C30   1.399       .  A
C29         Br41   1.922   1_565  S
C30         C353   1.416   1_455  A
C30          H33   1.079       .  S
C32         C198   1.403   1_655  A
C32         C366   1.410   1_565  A
C34          C35   1.404       .  A
C34         C196   1.403   1_455  A
C34          H39   1.082       .  S
C35         C528   1.431   1_455  A
C35         Br43   1.923       .  S
C36          C37   1.420   1_565  A
C36         C527   1.431       .  A
C37          C38   1.397       .  A
C37          H40   1.074       .  S
C38         C360   1.410   1_545  A
C38         Br44   1.925       .  S
C45          C46   1.406       .  A
C45          C50   1.401       .  A
C46          C47   1.402       .  A
C46         Br62   1.917       .  S
C47          C48   1.406       .  A
C47          H51   1.083       .  S
C48          C52   1.485       .  S
C48          C49   1.412       .  A
C49          C50   1.398       .  A
C49         Br61   1.921       .  S
C50          H53   1.084       .  S
C52          C54   1.397       .  A
C52          C58   1.402       .  A
C54          C55   1.400       .  A
C54          H59   1.084       .  S
C55          C56   1.436       .  A
C55        Br391   1.927       .  S
C56          C57   1.422   1_545  A
C57          C58   1.397   1_565  A
C57         H224   1.075       .  S
C58        Br228   1.921   1_545  S
H60         C221   1.075       .  S
Br63        C383   1.927   1_455  S
Br64        C222   1.921       .  S
C65          C66   1.416       .  A
C65          C70   1.409       .  A
C66          C67   1.404       .  A
C66         Br82   1.920       .  S
C67          C68   1.402       .  A
C67          H71   1.083       .  S
C68          C72   1.482       .  S
C68          C69   1.405       .  A
C69          C70   1.401       .  A
C69         Br81   1.918       .  S
C70          H73   1.083       .  S
C72          C74   1.393       .  A
C72          C78   1.402       .  A
C74          C75   1.398       .  A
C74          H79   1.084       .  S
C75          C76   1.437       .  A
C75        Br247   1.926       .  S
C76         C351   1.576   1_445  S
C76          C77   1.421       .  A
C77          C78   1.404       .  A
C77          H80   1.078       .  S
C78         Br84   1.917       .  S
Br83        C239   1.926       .  S
C85          C86   1.408       .  A
C85          C90   1.402       .  A
C86          C87   1.401       .  A
C86        Br102   1.918       .  S
C87          C88   1.405       .  A
C87          H91   1.084       .  S
C88          C92   1.481       .  S
C88          C89   1.409       .  A
C89          C90   1.398       .  A
C89        Br101   1.920       .  S
C90          H93   1.084       .  S
C92          C94   1.399       .  A
C92          C98   1.400       .  A
C94          C95   1.405       .  A
C94          H99   1.084       .  S
C95          C96   1.433       .  A
C95        Br103   1.924       .  S
C96         C187   1.579       .  S
C96          C97   1.422       .  A
C97          C98   1.392       .  A
C97         H428   1.076       .  S
C98        Br104   1.923       .  S
H100        C425   1.076   1_455  S
C105        C106   1.443       .  A
C105        C110   1.426       .  A
C106        C107   1.400       .  A
C106       Br286   1.920   1_545  S
C107        C108   1.390       .  A
C107        H111   1.085       .  S
C108        C112   1.480       .  S
C108        C109   1.397       .  A
C109        C110   1.400       .  A
C109       Br121   1.917       .  S
C110        H113   1.082       .  S
C112        C114   1.403       .  A
C112        C118   1.404       .  A
C114        C115   1.405       .  A
C114        H119   1.083       .  S
C115        C116   1.417       .  A
C115       Br123   1.921       .  S
C116        C117   1.410       .  A
C117        C118   1.397       .  A
C117        H120   1.083       .  S
C118       Br124   1.921       .  S
Br122       C270   1.920       .  S
C125        C352   1.582   1_445  S
C125        C126   1.433       .  A
C125        C130   1.425       .  A
C126        C127   1.398       .  A
C126       Br306   1.911       .  S
C127        C128   1.393       .  A
C127        H131   1.084       .  S
C128        C132   1.481       .  S
C128        C129   1.400       .  A
C129        C130   1.404       .  A
C129       Br141   1.917       .  S
C130        H133   1.079       .  S
C132        C134   1.401       .  A
C132        C138   1.407       .  A
C134        C135   1.402       .  A
C134        H139   1.084       .  S
C135        C136   1.417       .  A
C135       Br143   1.921       .  S
C136        C137   1.405       .  A
C137        C138   1.399       .  A
C137        H140   1.083       .  S
C138       Br144   1.916       .  S
Br142       C290   1.911       .  S
C145        C146   1.410       .  A
C145        C150   1.400       .  A
C146        C147   1.404       .  A
C146       Br162   1.919       .  S
C147        C148   1.404       .  A
C147        H151   1.083       .  S
C148        C152   1.481       .  S
C148        C149   1.410       .  A
C149        C150   1.396       .  A
C149       Br161   1.916       .  S
C150        H153   1.084       .  S
C152        C154   1.395       .  A
C152        C158   1.402       .  A
C154        C155   1.401       .  A
C154        H159   1.084       .  S
C155        C156   1.434       .  A
C155       Br491   1.923       .  S
C156        C188   1.569       .  S
C156        C157   1.416       .  A
C157        C158   1.403       .  A
C157        H160   1.075       .  S
C158       Br164   1.918       .  S
Br163       C483   1.923       .  S
O165       Cr183   1.975       .  S
O165        C173   1.259       .  A
O166       Cr183   2.010       .  S
O166        C167   1.267       .  A
C167        O168   1.261       .  A
C167        C229   1.490       .  S
O168       Cr184   1.986       .  S
O169       Cr184   2.012       .  S
O169        C170   1.267       .  A
C170        O171   1.260       .  A
C170        C209   1.470       .  S
O171       Cr185   1.974       .  S
O172       Cr185   2.009       .  S
O172        C173   1.266       .  A
C173        C249   1.472       .  S
O174       Cr183   2.011       .  S
O174        C182   1.265       .  A
O175       Cr183   1.977       .  S
O175        C176   1.259       .  A
C176        O177   1.268       .  A
C176        C300   1.484       .  S
O177       Cr184   2.012       .  S
O178       Cr184   1.991       .  S
O178        C179   1.262       .  A
C179        O180   1.264       .  A
C179        C280   1.492       .  S
O180       Cr185   2.000       .  S
O181       Cr185   1.980       .  S
O181        C182   1.258       .  A
C182        C309   1.473       .  S
Cr183       O186   1.776       .  S
Cr184       O186   1.773       .  S
Cr185       O186   1.773       .  S
C187        C200   1.579       .  S
C187        C220   1.579       .  S
C187        C568   1.576       .  S
C188        C189   1.576       .  S
C188        C269   1.575       .  S
C188        C617   1.582       .  S
C189        C522   1.416       .  A
C190        C191   1.402       .  A
C190       Br206   1.930       .  S
C191        C356   1.401       .  A
C191        H195   1.083       .  S
C192        C196   1.501   1_556  S
C192        C355   1.401       .  A
C192        C193   1.410   1_655  A
C193        C194   1.399       .  A
C193       Br205   1.922       .  S
C194        C517   1.416   1_455  A
C194        H197   1.079       .  S
C196        C530   1.410       .  A
C198        C199   1.404       .  A
C198        H203   1.082       .  S
C199        C364   1.431   1_455  A
C199       Br207   1.923       .  S
C200        C363   1.431       .  A
C200        C201   1.420       .  A
C201        C202   1.397       .  A
C201        H204   1.074       .  S
C202        C524   1.410       .  A
C202       Br208   1.925       .  S
C209        C210   1.406       .  A
C209        C214   1.401       .  A
C210        C211   1.402       .  A
C210       Br226   1.917       .  S
C211        C212   1.406       .  A
C211        H215   1.083       .  S
C212        C216   1.485       .  S
C212        C213   1.412       .  A
C213        C214   1.398       .  A
C213       Br225   1.921       .  S
C214        H217   1.084       .  S
C216        C218   1.397       .  A
C216        C222   1.402       .  A
C218        C219   1.400       .  A
C218        H223   1.084       .  S
C219        C220   1.436       .  A
C219       Br555   1.927       .  S
C220        C221   1.422       .  A
C221        C222   1.397       .  A
Br227       C547   1.927   1_455  S
C229        C230   1.416       .  A
C229        C234   1.409       .  A
C230        C231   1.404       .  A
C230       Br246   1.920       .  S
C231        C232   1.402       .  A
C231        H235   1.083       .  S
C232        C236   1.482       .  S
C232        C233   1.405       .  A
C233        C234   1.401       .  A
C233       Br245   1.918       .  S
C234        H237   1.083       .  S
C236        C238   1.393       .  A
C236        C242   1.402       .  A
C238        C239   1.398       .  A
C238        H243   1.084       .  S
C239        C240   1.437       .  A
C240        C515   1.576   1_455  S
C240        C241   1.421       .  A
C241        C242   1.404       .  A
C241        H244   1.078       .  S
C242       Br248   1.917       .  S
C249        C250   1.408       .  A
C249        C254   1.402       .  A
C250        C251   1.401       .  A
C250       Br266   1.918       .  S
C251        C252   1.405       .  A
C251        H255   1.084       .  S
C252        C256   1.481       .  S
C252        C253   1.409       .  A
C253        C254   1.398       .  A
C253       Br265   1.920       .  S
C254        H257   1.084       .  S
C256        C258   1.399       .  A
C256        C262   1.400       .  A
C258        C259   1.405       .  A
C258        H263   1.084       .  S
C259        C260   1.433       .  A
C259       Br267   1.924       .  S
C260        C261   1.422       .  A
C261        C262   1.391       .  A
C261        H592   1.076       .  S
C262       Br268   1.923       .  S
H264        C589   1.076   1_455  S
C269        C270   1.443       .  A
C269        C274   1.426       .  A
C270        C271   1.400       .  A
C271        C272   1.390       .  A
C271        H275   1.085       .  S
C272        C276   1.480       .  S
C272        C273   1.397       .  A
C273        C274   1.400       .  A
C273       Br285   1.917       .  S
C274        H277   1.082       .  S
C276        C278   1.403       .  A
C276        C282   1.404       .  A
C278        C279   1.405       .  A
C278        H283   1.083       .  S
C279        C280   1.417       .  A
C279       Br287   1.921       .  S
C280        C281   1.410       .  A
C281        C282   1.397       .  A
C281        H284   1.083       .  S
C282       Br288   1.921       .  S
C289        C516   1.582   1_455  S
C289        C290   1.433       .  A
C289        C294   1.425       .  A
C290        C291   1.398       .  A
C291        C292   1.393       .  A
C291        H295   1.084       .  S
C292        C296   1.481       .  S
C292        C293   1.400       .  A
C293        C294   1.404       .  A
C293       Br305   1.917       .  S
C294        H297   1.079       .  S
C296        C298   1.401       .  A
C296        C302   1.407       .  A
C298        C299   1.402       .  A
C298        H303   1.084       .  S
C299        C300   1.417       .  A
C299       Br307   1.921       .  S
C300        C301   1.405       .  A
C301        C302   1.399       .  A
C301        H304   1.083       .  S
C302       Br308   1.916       .  S
C309        C310   1.410       .  A
C309        C314   1.400       .  A
C310        C311   1.404       .  A
C310       Br326   1.919       .  S
C311        C312   1.404       .  A
C311        H315   1.083       .  S
C312        C316   1.481       .  S
C312        C313   1.410       .  A
C313        C314   1.396       .  A
C313       Br325   1.916       .  S
C314        H317   1.084       .  S
C316        C318   1.395       .  A
C316        C322   1.402       .  A
C318        C319   1.401       .  A
C318        H323   1.084       .  S
C319        C320   1.434       .  A
C319       Br655   1.923       .  S
C320        C321   1.416       .  A
C321        C322   1.403       .  A
C321        H324   1.075       .  S
C322       Br328   1.918       .  S
Br327       C647   1.923       .  S
O329       Cr347   1.975       .  S
O329        C337   1.259       .  A
O330       Cr347   2.010       .  S
O330        C331   1.267       .  A
C331        O332   1.261       .  A
C331        C393   1.490       .  S
O332       Cr348   1.986       .  S
O333       Cr348   2.012       .  S
O333        C334   1.267       .  A
C334        O335   1.260       .  A
C334        C373   1.470       .  S
O335       Cr349   1.974       .  S
O336       Cr349   2.009       .  S
O336        C337   1.266       .  A
C337        C413   1.472       .  S
O338       Cr347   2.011       .  S
O338        C346   1.265       .  A
O339       Cr347   1.977       .  S
O339        C340   1.259       .  A
C340        O341   1.268       .  A
C340        C464   1.484       .  S
O341       Cr348   2.012       .  S
O342       Cr348   1.991       .  S
O342        C343   1.262       .  A
C343        O344   1.264       .  A
C343        C444   1.492       .  S
O344       Cr349   2.000       .  S
O345       Cr349   1.980       .  S
O345        C346   1.258       .  A
C346        C473   1.473       .  S
Cr347       O350   1.776       .  S
Cr348       O350   1.773       .  S
Cr349       O350   1.773       .  S
C351        C364   1.579       .  S
C351        C384   1.579   1_565  S
C351        C588   1.579       .  S
C352        C353   1.576       .  S
C352        C433   1.575   1_565  S
C352        C648   1.569       .  S
C353        C518   1.437       .  A
C354        C517   1.437       .  A
C354        C355   1.402       .  A
C354       Br370   1.930       .  S
C355        H359   1.083       .  S
C356        C360   1.501   1_556  S
C356        C357   1.410       .  A
C357        C358   1.399       .  A
C357       Br369   1.922   1_565  S
C358        H361   1.079       .  S
C360        C526   1.403       .  A
C362        C524   1.403       .  A
C362        C363   1.404       .  A
C362        H367   1.082       .  S
C363       Br371   1.923       .  S
C364        C365   1.420   1_565  A
C365        C366   1.397       .  A
C365        H368   1.074       .  S
C366       Br372   1.925       .  S
C373        C374   1.406       .  A
C373        C378   1.401       .  A
C374        C375   1.402       .  A
C374       Br390   1.917       .  S
C375        C376   1.406       .  A
C375        H379   1.083       .  S
C376        C380   1.485       .  S
C376        C377   1.412       .  A
C377        C378   1.398       .  A
C377       Br389   1.921       .  S
C378        H381   1.084       .  S
C380        C382   1.397       .  A
C380        C386   1.402       .  A
C382        C383   1.400       .  A
C382        H387   1.084       .  S
C383        C384   1.436       .  A
C384        C385   1.422   1_545  A
C385        C386   1.397   1_565  A
C385        H552   1.075       .  S
C386       Br556   1.921   1_545  S
H388        C549   1.075       .  S
Br392       C550   1.921       .  S
C393        C394   1.416       .  A
C393        C398   1.409       .  A
C394        C395   1.404       .  A
C394       Br410   1.920       .  S
C395        C396   1.402       .  A
C395        H399   1.083       .  S
C396        C400   1.482       .  S
C396        C397   1.405       .  A
C397        C398   1.401       .  A
C397       Br409   1.918       .  S
C398        H401   1.083       .  S
C400        C402   1.393       .  A
C400        C406   1.402       .  A
C402        C403   1.398       .  A
C402        H407   1.084       .  S
C403        C404   1.437       .  A
C403       Br575   1.926       .  S
C404        C405   1.421       .  A
C405        C406   1.404       .  A
C405        H408   1.078       .  S
C406       Br412   1.917       .  S
Br411       C567   1.926       .  S
C413        C414   1.408       .  A
C413        C418   1.402       .  A
C414        C415   1.401       .  A
C414       Br430   1.918       .  S
C415        C416   1.405       .  A
C415        H419   1.084       .  S
C416        C420   1.481       .  S
C416        C417   1.409       .  A
C417        C418   1.398       .  A
C417       Br429   1.920       .  S
C418        H421   1.084       .  S
C420        C422   1.399       .  A
C420        C426   1.400       .  A
C422        C423   1.405       .  A
C422        H427   1.084       .  S
C423        C424   1.433       .  A
C423       Br431   1.924       .  S
C424        C515   1.579       .  S
C424        C425   1.422       .  A
C425        C426   1.392       .  A
C426       Br432   1.923       .  S
C433        C434   1.443       .  A
C433        C438   1.426       .  A
C434        C435   1.400       .  A
C434       Br614   1.920   1_545  S
C435        C436   1.390       .  A
C435        H439   1.085       .  S
C436        C440   1.480       .  S
C436        C437   1.397       .  A
C437        C438   1.400       .  A
C437       Br449   1.917       .  S
C438        H441   1.082   1_655  S
C440        C442   1.403       .  A
C440        C446   1.404       .  A
C442        C443   1.405       .  A
C442        H447   1.083       .  S
C443        C444   1.417       .  A
C443       Br451   1.921       .  S
C444        C445   1.410       .  A
C445        C446   1.397       .  A
C445        H448   1.083       .  S
C446       Br452   1.921   1_655  S
Br450       C598   1.920       .  S
C453        C454   1.433       .  A
C453        C458   1.425       .  A
C454        C455   1.398       .  A
C454       Br634   1.911       .  S
C455        C456   1.393       .  A
C455        H459   1.084       .  S
C456        C460   1.481       .  S
C456        C457   1.400       .  A
C457        C458   1.404       .  A
C457       Br469   1.917       .  S
C458        H461   1.079       .  S
C460        C462   1.401       .  A
C460        C466   1.407       .  A
C462        C463   1.402       .  A
C462        H467   1.084       .  S
C463        C464   1.417       .  A
C463       Br471   1.921       .  S
C464        C465   1.405       .  A
C465        C466   1.399       .  A
C465        H468   1.083       .  S
C466       Br472   1.916       .  S
Br470       C618   1.911       .  S
C473        C474   1.410       .  A
C473        C478   1.400       .  A
C474        C475   1.404       .  A
C474       Br490   1.919       .  S
C475        C476   1.404       .  A
C475        H479   1.083       .  S
C476        C480   1.481       .  S
C476        C477   1.410       .  A
C477        C478   1.396       .  A
C477       Br489   1.916       .  S
C478        H481   1.084       .  S
C480        C482   1.395       .  A
C480        C486   1.402       .  A
C482        C483   1.401   1_655  A
C482        H487   1.084   1_655  S
C483        C484   1.434   1_455  A
C484        C516   1.569       .  S
C484        C485   1.416       .  A
C485        C486   1.403       .  A
C485        H488   1.075       .  S
C486       Br492   1.918       .  S
O493       Cr511   1.975       .  S
O493        C501   1.259       .  A
O494       Cr511   2.010       .  S
O494        C495   1.267       .  A
C495        O496   1.261       .  A
C495        C557   1.490       .  S
O496       Cr512   1.986       .  S
O497       Cr512   2.012       .  S
O497        C498   1.267       .  A
C498        O499   1.260       .  A
C498        C537   1.470       .  S
O499       Cr513   1.974       .  S
O500       Cr513   2.009       .  S
O500        C501   1.266       .  A
C501        C577   1.472       .  S
O502       Cr511   2.011       .  S
O502        C510   1.265       .  A
O503       Cr511   1.977       .  S
O503        C504   1.259       .  A
C504        O505   1.268       .  A
C504        C628   1.484       .  S
O505       Cr512   2.012       .  S
O506       Cr512   1.991       .  S
O506        C507   1.262       .  A
C507        O508   1.264       .  A
C507        C608   1.492       .  S
O508       Cr513   2.000       .  S
O509       Cr513   1.980       .  S
O509        C510   1.258       .  A
C510        C637   1.473       .  S
Cr511       O514   1.776       .  S
Cr512       O514   1.773       .  S
Cr513       O514   1.773       .  S
C515        C528   1.579       .  S
C515        C548   1.579       .  S
C516        C517   1.576       .  S
C516        C597   1.575       .  S
C518        C519   1.402       .  A
C518       Br534   1.930       .  S
C519        H523   1.083       .  S
C520        C524   1.501   1_556  S
C520        C521   1.410       .  A
C521        C522   1.399       .  A
C521       Br533   1.922       .  S
C522        H525   1.079       .  S
C526        C527   1.404       .  A
C526        H531   1.082       .  S
C527       Br535   1.923       .  S
C528        C529   1.420       .  A
C529        C530   1.397       .  A
C529        H532   1.074       .  S
C530       Br536   1.925       .  S
C537        C538   1.406       .  A
C537        C542   1.401       .  A
C538        C539   1.402       .  A
C538       Br554   1.917       .  S
C539        C540   1.406       .  A
C539        H543   1.083       .  S
C540        C544   1.485       .  S
C540        C541   1.412       .  A
C541        C542   1.398       .  A
C541       Br553   1.921       .  S
C542        H545   1.084       .  S
C544        C546   1.397       .  A
C544        C550   1.402       .  A
C546        C547   1.400       .  A
C546        H551   1.084       .  S
C547        C548   1.436       .  A
C548        C549   1.422       .  A
C549        C550   1.397       .  A
C557        C558   1.416       .  A
C557        C562   1.409       .  A
C558        C559   1.404       .  A
C558       Br574   1.920       .  S
C559        C560   1.402       .  A
C559        H563   1.083       .  S
C560        C564   1.482       .  S
C560        C561   1.405       .  A
C561        C562   1.401       .  A
C561       Br573   1.918       .  S
C562        H565   1.083       .  S
C564        C566   1.393       .  A
C564        C570   1.402       .  A
C566        C567   1.398       .  A
C566        H571   1.084       .  S
C567        C568   1.437       .  A
C568        C569   1.421       .  A
C569        C570   1.404       .  A
C569        H572   1.078       .  S
C570       Br576   1.917       .  S
C577        C578   1.408       .  A
C577        C582   1.402       .  A
C578        C579   1.401       .  A
C578       Br594   1.918       .  S
C579        C580   1.405       .  A
C579        H583   1.084       .  S
C580        C584   1.481       .  S
C580        C581   1.409       .  A
C581        C582   1.398       .  A
C581       Br593   1.920       .  S
C582        H585   1.084       .  S
C584        C586   1.399       .  A
C584        C590   1.400       .  A
C586        C587   1.405       .  A
C586        H591   1.084       .  S
C587        C588   1.433       .  A
C587       Br595   1.924       .  S
C588        C589   1.422       .  A
C589        C590   1.391       .  A
C590       Br596   1.923       .  S
C597        C598   1.443       .  A
C597        C602   1.426       .  A
C598        C599   1.400       .  A
C599        C600   1.390       .  A
C599        H603   1.085       .  S
C600        C604   1.480       .  S
C600        C601   1.397       .  A
C601        C602   1.400       .  A
C601       Br613   1.917       .  S
C602        H605   1.082   1_655  S
C604        C606   1.403       .  A
C604        C610   1.404       .  A
C606        C607   1.405       .  A
C606        H611   1.083       .  S
C607        C608   1.417       .  A
C607       Br615   1.921       .  S
C608        C609   1.410       .  A
C609        C610   1.397       .  A
C609        H612   1.083       .  S
C610       Br616   1.921   1_655  S
C617        C618   1.433       .  A
C617        C622   1.425       .  A
C618        C619   1.398       .  A
C619        C620   1.393       .  A
C619        H623   1.084       .  S
C620        C624   1.481       .  S
C620        C621   1.400       .  A
C621        C622   1.404       .  A
C621       Br633   1.917       .  S
C622        H625   1.079       .  S
C624        C626   1.401       .  A
C624        C630   1.407       .  A
C626        C627   1.402       .  A
C626        H631   1.084       .  S
C627        C628   1.417       .  A
C627       Br635   1.921       .  S
C628        C629   1.405       .  A
C629        C630   1.399       .  A
C629        H632   1.083       .  S
C630       Br636   1.916       .  S
C637        C638   1.410       .  A
C637        C642   1.400       .  A
C638        C639   1.404       .  A
C638       Br654   1.919       .  S
C639        C640   1.404       .  A
C639        H643   1.083       .  S
C640        C644   1.481       .  S
C640        C641   1.410       .  A
C641        C642   1.396       .  A
C641       Br653   1.916       .  S
C642        H645   1.084       .  S
C644        C646   1.395       .  A
C644        C650   1.402       .  A
C646        C647   1.401   1_655  A
C646        H651   1.084   1_655  S
C647        C648   1.434   1_455  A
C648        C649   1.416       .  A
C649        C650   1.403       .  A
C649        H652   1.075       .  S
C650       Br656   1.918       .  S
