geometry optimzed in LAMMPS
_audit_creation_date              2020-12-01 
_audit_creation_method            'lammps2cif' 
_symmetry_space_group_name_H-M    'P1' 
_symmetry_Int_Tables_number       1 
_symmetry_cell_setting            triclinic 
loop_ 
_symmetry_equiv_pos_as_xyz 
  x,y,z 
_cell_length_a                    59.18048987 
_cell_length_b                    59.597382065150825 
_cell_length_c                    35.62444310434837 
_cell_angle_alpha                 89.91374277492795 
_cell_angle_beta                  90.05793757148925 
_cell_angle_gamma                 127.79489885292048 
loop_ 
_atom_site_label 
_atom_site_type_symbol 
_atom_site_fract_x 
_atom_site_fract_y 
_atom_site_fract_z 
_atom_site_charge 
C1          C  0.45709437  0.93283220  0.33475230     0.03200
C2          C  0.44233960  0.91392870  0.03530485    -0.12900
C3          C  0.43519526  0.88677506  0.03591512     0.00700
C4          C  0.43338202  0.87373351  0.00239985    -0.11500
C5          C  0.44531729  0.89131950  0.29985983     0.03200
C6          C  0.45467699  0.91939002  0.30044084    -0.10900
H7          H  0.44173089  0.92224755  0.06175695     0.08800
H8          H  0.42672659  0.85225008  0.00291418     0.06300
H9          H  0.45973080  0.93014176  0.27382021     0.06200
C10         C  0.44157966  0.45472664  0.33294601     0.03200
C11         C  0.44225880  0.46869545  0.03309191    -0.12900
C12         C  0.43212551  0.48467304  0.03308880     0.00700
C13         C  0.41691867  0.48298640  0.33232449    -0.11500
C14         C  0.42664275  0.47948942  0.29887080     0.03200
C15         C  0.43960291  0.46620222  0.29931163    -0.10900
H16         H  0.44749836  0.46465915  0.05997810     0.08800
H17         H  0.40757005  0.49396718  0.33211212     0.06300
H18         H  0.44843662  0.46560815  0.27320509     0.06200
C19         C  0.39985882  0.80444174  0.18948642     0.02400
C20         C  0.39786801  0.80403976  0.15008947     0.02300
C21         C  0.38440924  0.77829108  0.13079465    -0.18200
C22         C  0.37189766  0.75268282  0.15010028     0.02400
C23         C  0.37182825  0.75276660  0.18969549     0.02300
C24         C  0.38635674  0.77869179  0.20892807    -0.18200
H25         H  0.38697692  0.77881461  0.23939319     0.04400
H26         H  0.38350119  0.77817568  0.10034421     0.04400
O27         O  0.29198692  0.63639543  0.28827760    -0.85300
O28         O  0.23895546  0.58563548  0.30424686    -0.82300
C29         C  0.23608750  0.56821060  0.28072600     0.98200
O30         O  0.25194263  0.56080260  0.28300744    -0.82400
O31         O  0.29739851  0.56126116  0.30348220    -0.85000
C32         C  0.31880271  0.58014772  0.28407394     1.02700
O33         O  0.33015264  0.60592618  0.28970297    -0.77800
O34         O  0.33426456  0.65280566  0.30931551    -0.77900
C35         C  0.31894316  0.65431504  0.28646246     1.02700
O36         O  0.30346555  0.65224829  0.02540461    -0.85300
O37         O  0.25451190  0.59996042  0.04633583    -0.82300
C38         C  0.23732696  0.57344460  0.05117426     0.98200
O39         O  0.23915467  0.55721827  0.03076789    -0.82400
O40         O  0.28902891  0.56483017  0.04833278    -0.85000
C41         C  0.31561890  0.57796058  0.05199019     1.02700
O42         O  0.33298073  0.59845289  0.03060793    -0.77800
O43         O  0.33067462  0.64235131  0.04789769    -0.77900
C44         C  0.32133941  0.65655018  0.04949299     1.02600
Cr45       Cr  0.27230325  0.61518917  0.33539582     1.93700
Cr46       Cr  0.26849722  0.56161562  0.33207761     1.93200
Cr47       Cr  0.32715440  0.62041255  0.33817097     1.39100
O48         O  0.28939041  0.59906838  0.33536327    -1.23000
C49         C  0.39200532  0.52022748  0.14639399     0.02400
C50         C  0.39403056  0.52224368  0.18588612     0.02300
C51         C  0.38129547  0.53244376  0.20526693    -0.18200
C52         C  0.36662761  0.54064689  0.18624950     0.02400
C53         C  0.36449096  0.53848808  0.14665000     0.02300
C54         C  0.37740800  0.52850866  0.12728656    -0.18200
H55         H  0.37632096  0.52740944  0.09687775     0.04400
H56         H  0.38254445  0.53372538  0.23567927     0.04400
C57         C  0.13665438  0.51729167  0.18543123     0.02400
C58         C  0.13701813  0.51926016  0.14599897     0.02300
C59         C  0.11146481  0.50809662  0.12682016    -0.18200
C60         C  0.08545079  0.49427229  0.14610205     0.02400
C61         C  0.08497180  0.49172583  0.18546706     0.02300
C62         C  0.11062494  0.50325978  0.20469178    -0.18200
H63         H  0.11039633  0.50168623  0.23504906     0.04400
H64         H  0.11174270  0.50984223  0.09647059     0.04400
C65         C  0.95676313  0.43780997  0.33305694     0.03200
C66         C  0.97300339  0.44732100  0.03281067    -0.12900
C67         C  0.00095153  0.45585097  0.03263422     0.00700
C68         C  0.01229809  0.45294060  0.33223898    -0.11500
C69         C  0.99982364  0.45228419  0.29858097     0.03200
C70         C  0.97243355  0.44526760  0.29906161    -0.10900
H71         H  0.96456239  0.44771149  0.05942257     0.08800
H72         H  0.03391053  0.45945393  0.33218990     0.06300
H73         H  0.96392293  0.44590084  0.27272163     0.06200
C74         C  0.92723206  0.43015822  0.33366417     0.03200
C75         C  0.91110071  0.42311136  0.03309220    -0.12900
C76         C  0.88381816  0.41632834  0.03311526     0.00700
C77         C  0.87206953  0.41591678  0.33443363    -0.11500
C78         C  0.88405144  0.41629461  0.30053924     0.03200
C79         C  0.91107554  0.42263114  0.30021798    -0.10900
H80         H  0.91948496  0.42261894  0.05971416     0.08800
H81         H  0.85073453  0.41011521  0.33464222     0.06300
H82         H  0.91894269  0.42151016  0.27360436     0.06200
C83         C  0.45494605  0.43977229  0.33304605     0.03200
C84         C  0.45910113  0.43027727  0.29909948    -0.12900
C85         C  0.47204762  0.41695787  0.29905987     0.00700
C86         C  0.47972166  0.41159577  0.33296010    -0.11500
C87         C  0.46632162  0.41191575  0.03268596     0.03200
C88         C  0.45634182  0.42803265  0.03272020    -0.10900
H89         H  0.45207559  0.43252244  0.27237355     0.08800
H90         H  0.48892923  0.40050411  0.33294507     0.06300
H91         H  0.44989374  0.43094361  0.05940637     0.06200
C92         C  0.80179853  0.38564605  0.14750852     0.02400
C93         C  0.80173026  0.38509760  0.18706752     0.02300
C94         C  0.77612028  0.37346430  0.20657780    -0.18200
C95         C  0.75057682  0.36224535  0.18732429     0.02400
C96         C  0.75070521  0.36266089  0.14782308     0.02300
C97         C  0.77628348  0.37462353  0.12837127    -0.18200
H98         H  0.77625383  0.37501921  0.09789215     0.04400
H99         H  0.77603751  0.37296818  0.23704281     0.04400
C100        C  0.49890105  0.36912307  0.14613723     0.02400
C101        C  0.50310140  0.37311642  0.18523396     0.02300
C102        C  0.51656630  0.36354168  0.20418120    -0.18200
C103        C  0.52680234  0.35087195  0.18488295    -0.00400
C104        C  0.52233898  0.34654524  0.14565185     0.02300
C105        C  0.50878859  0.35610480  0.12681358    -0.18200
H106        H  0.50668186  0.35420041  0.09655455     0.04400
H107        H  0.51915691  0.36606639  0.23436236     0.04400
O108        O  0.58217820  0.23285263  0.30679618    -0.85300
O109        O  0.63127227  0.28461922  0.28449959    -0.82300
C110        C  0.64957672  0.31107519  0.28030901     0.98200
O111        O  0.64859734  0.32777348  0.30101675    -0.82400
O112        O  0.59935356  0.32188917  0.28501931    -0.85000
C113        C  0.57285193  0.30921874  0.28127065     1.02700
O114        O  0.55510289  0.28871294  0.30257902    -0.77800
O115        O  0.55481990  0.24319592  0.28612579    -0.77900
C116        C  0.56358112  0.22856152  0.28394124     1.02700
O117        O  0.59803404  0.25022480  0.04824562    -0.85300
O118        O  0.64978548  0.30033022  0.02818832    -0.82300
C119        C  0.65308249  0.31792545  0.05170809     0.98200
O120        O  0.63768619  0.32589530  0.04949718    -0.82400
O121        O  0.59108408  0.32415697  0.03059780    -0.85000
C122        C  0.56988016  0.30571367  0.05065338     1.02700
O123        O  0.55803510  0.27964478  0.04635582    -0.77800
O124        O  0.55450475  0.23222697  0.03000621    -0.77900
C125        C  0.57129589  0.23186812  0.05164637     1.02600
Cr126      Cr  0.61309436  0.26814907  0.33371493     1.93700
Cr127      Cr  0.61714225  0.32186139  0.33244976     1.93200
Cr128      Cr  0.55800451  0.26253292  0.33363269     1.39100
O129        O  0.59602114  0.28427403  0.33326974    -1.23000
C130        C  0.52308062  0.13315187  0.14642004     0.02400
C131        C  0.52039459  0.13307210  0.18573717     0.02300
C132        C  0.50803532  0.10787060  0.20588219    -0.18200
C133        C  0.49732065  0.08221023  0.18779538     0.02400
C134        C  0.50018213  0.08226923  0.14835394     0.02300
C135        C  0.51260552  0.10763136  0.12817159    -0.18200
H136        H  0.51433246  0.10751358  0.09790795     0.04400
H137        H  0.50783951  0.10858185  0.23625199     0.04400
C138        C  0.46575035  0.96255617  0.33537787     0.03200
C139        C  0.46540760  0.97471563  0.03483072    -0.12900
C140        C  0.47262230  0.00188293  0.03493486     0.00700
C141        C  0.48205357  0.01815134  0.33629143    -0.11500
C142        C  0.47378050  0.00319813  0.30252848     0.03200
C143        C  0.46479254  0.97526917  0.30231099    -0.10900
H144        H  0.46568792  0.96642160  0.06153860     0.08800
H145        H  0.48832183  0.03950286  0.33672827     0.06300
H146        H  0.45685180  0.96383824  0.27614173     0.06200
C147        C  0.45869270  0.02717777  0.26550277    -0.20200
C148        C  0.47527319  0.01771088  0.26769896    -0.06800
C149        C  0.49628966  0.02640341  0.24006126     0.14100
C150        C  0.50143359  0.04579115  0.21227962    -0.20300
C151        C  0.48633408  0.05696511  0.21175118    -0.06800
C152        C  0.46402983  0.04684911  0.23810967     0.14100
C153        C  0.44638842  0.05735980  0.23861481    -0.23600
H154        H  0.44262290  0.02042601  0.28684214     0.15300
H155        H  0.51878690  0.05384585  0.19257526     0.15400
C156        C  0.51470024  0.01687371  0.24137235    -0.23600
H157        H  0.42861609  0.04543342  0.25921776     0.05600
H158        H  0.43686466  0.05475632  0.21066119     0.08800
H159        H  0.45961899  0.08002455  0.24671440     0.08800
H160        H  0.50116954  0.99346792  0.23825504     0.08800
H161        H  0.52631185  0.02314256  0.26853426     0.08800
H162        H  0.53077780  0.02652082  0.21842547     0.05600
C163        C  0.45683263  0.01732648  0.08615181    -0.20200
C164        C  0.47866827  0.01766979  0.07016186    -0.06800
C165        C  0.50676810  0.03645270  0.08418596     0.14100
C166        C  0.51281765  0.05592622  0.11226657    -0.20300
C167        C  0.49131743  0.05684717  0.12665124    -0.06800
C168        C  0.46285069  0.03675087  0.11431193     0.14100
C169        C  0.43909364  0.03664114  0.12950641    -0.23600
H170        H  0.43529406  0.00281486  0.07512335     0.15300
H171        H  0.53468082  0.07155640  0.12159692     0.15400
C172        C  0.53052619  0.03681557  0.06816004    -0.23600
H173        H  0.41839537  0.02044141  0.11547273     0.05600
H174        H  0.44412388  0.05774073  0.12531188     0.08800
H175        H  0.43644806  0.03145391  0.15979470     0.08800
H176        H  0.53301995  0.04191841  0.03774368     0.08800
H177        H  0.52540808  0.01564849  0.07201935     0.08800
H178        H  0.55126835  0.05288708  0.08219276     0.05600
C179        C  0.57013590  0.19850943  0.24529711    -0.20200
C180        C  0.55234951  0.20571805  0.25551837    -0.06800
C181        C  0.52414031  0.18939772  0.24097524     0.14100
C182        C  0.51474509  0.16659965  0.21669485    -0.20300
C183        C  0.53252248  0.15932617  0.20735330    -0.06800
C184        C  0.56040318  0.17521563  0.22227141     0.14100
C185        C  0.58006105  0.16749517  0.21595179    -0.23600
H186        H  0.59167017  0.21058109  0.25643938     0.15300
H187        H  0.49304102  0.15366637  0.20602071     0.15400
C188        C  0.50327655  0.19466122  0.25241903    -0.23600
H189        H  0.58614485  0.16381057  0.24344682     0.05600
H190        H  0.59970134  0.18521608  0.20134956     0.08800
H191        H  0.57016648  0.14793033  0.19913352     0.08800
H192        H  0.51106860  0.21597108  0.24287604     0.08800
H193        H  0.50073838  0.19313132  0.28341180     0.08800
H194        H  0.48184048  0.17894268  0.23975994     0.05600
C195        C  0.57426225  0.19668541  0.08319278    -0.20200
C196        C  0.55957002  0.20812117  0.07860048    -0.06800
C197        C  0.53334463  0.19542010  0.09772462     0.14100
C198        C  0.52235030  0.17138794  0.12026736    -0.20300
C199        C  0.53663219  0.15949476  0.12384181    -0.06800
C200        C  0.56292947  0.17228684  0.10499694     0.14100
C201        C  0.57904167  0.16021684  0.10733747    -0.23600
H202        H  0.59422521  0.20622784  0.06834454     0.15300
H203        H  0.50208774  0.16135180  0.13452002     0.15400
C204        C  0.51702385  0.20724979  0.09505282    -0.23600
H205        H  0.59950661  0.17336836  0.09156006     0.05600
H206        H  0.56609831  0.13854527  0.09523738     0.08800
H207        H  0.58415709  0.15936696  0.13691786     0.08800
H208        H  0.50910748  0.20502174  0.06601200     0.08800
H209        H  0.53108044  0.22999268  0.10325130     0.08800
H210        H  0.49812219  0.19584143  0.11392299     0.05600
C211        C  0.56338596  0.34910943  0.12208063    -0.20200
C212        C  0.53375304  0.33439718  0.12316693    -0.06800
C213        C  0.51581337  0.30898557  0.10228949     0.14100
C214        C  0.52809556  0.29960137  0.07979568    -0.20300
C215        C  0.55787938  0.31494792  0.07767757    -0.06800
C216        C  0.57559611  0.33955637  0.10005436     0.14100
C217        C  0.60723565  0.35486502  0.10261054    -0.23600
H218        H  0.57709944  0.36834250  0.13841589     0.15300
H219        H  0.51439047  0.28056514  0.06302953     0.15400
C220        C  0.48374064  0.29149911  0.10401575    -0.23600
H221        H  0.61754324  0.37225847  0.12362876     0.05600
H222        H  0.61768309  0.36437312  0.07516692     0.08800
H223        H  0.61068303  0.33933382  0.11151573     0.08800
H224        H  0.47684257  0.30352339  0.09183622     0.08800
H225        H  0.47646584  0.28594388  0.13361490     0.08800
H226        H  0.47302641  0.27143789  0.08789529     0.05600
C227        C  0.52636632  0.31163842  0.20959930    -0.20200
C228        C  0.54051829  0.34089354  0.20690449    -0.06800
C229        C  0.56654261  0.35984700  0.22651131     0.14100
C230        C  0.57719962  0.34891877  0.24929577    -0.20300
C231        C  0.56229642  0.31951918  0.25345448    -0.06800
C232        C  0.53678493  0.30069241  0.23268075     0.14100
C233        C  0.52071668  0.26904714  0.23394002    -0.23600
H234        H  0.50658204  0.29722585  0.19426268     0.15300
H235        H  0.59677899  0.36341524  0.26499984     0.15400
C236        C  0.58322945  0.39157377  0.22331177    -0.23600
H237        H  0.50248581  0.25778845  0.21394465     0.05600
H238        H  0.51187157  0.26073182  0.26241651     0.08800
H239        H  0.53539812  0.26412366  0.22617269     0.08800
H240        H  0.57064040  0.39811514  0.23469136     0.08800
H241        H  0.58844683  0.39814754  0.19346078     0.08800
H242        H  0.60361907  0.40317501  0.23925177     0.05600
C243        C  0.69413778  0.35305341  0.25134387    -0.20200
C244        C  0.67378116  0.32324568  0.25323952    -0.06800
C245        C  0.67839290  0.30645022  0.23130056     0.14100
C246        C  0.70343366  0.31992708  0.20969346    -0.20300
C247        C  0.72390819  0.34954068  0.20901179    -0.06800
C248        C  0.71899356  0.36634632  0.22963508     0.14100
C249        C  0.73945964  0.39835572  0.22942864    -0.23600
H250        H  0.69101542  0.36637122  0.26744500     0.15300
H251        H  0.70742759  0.30720104  0.19385451     0.15400
C252        C  0.65759163  0.27443719  0.23051730    -0.23600
H253        H  0.74759132  0.40619357  0.25831342     0.05600
H254        H  0.72809351  0.40674293  0.21972582     0.08800
H255        H  0.75803716  0.40711153  0.21062786     0.08800
H256        H  0.63631216  0.26741135  0.22087164     0.08800
H257        H  0.65582260  0.26571719  0.25885471     0.08800
H258        H  0.66458202  0.26524936  0.21097900     0.05600
C259        C  0.68708241  0.31391882  0.08492949    -0.20200
C260        C  0.67612558  0.32911061  0.08023063    -0.06800
C261        C  0.68917015  0.35494597  0.10014591     0.14100
C262        C  0.71287381  0.36488825  0.12326999    -0.20300
C263        C  0.72430736  0.35018493  0.12600280    -0.06800
C264        C  0.71128845  0.32440608  0.10671023     0.14100
C265        C  0.72323044  0.30815843  0.10827662    -0.23600
H266        H  0.67725677  0.29397849  0.07034901     0.15300
H267        H  0.72318904  0.38472541  0.13836586     0.15400
C268        C  0.67907080  0.37263191  0.09662384    -0.23600
H269        H  0.70983574  0.28797659  0.09224321     0.05600
H270        H  0.72433642  0.30289054  0.13771759     0.08800
H271        H  0.74500514  0.32107992  0.09594345     0.08800
H272        H  0.65706722  0.36036126  0.10752657     0.08800
H273        H  0.67980058  0.37854340  0.06684813     0.08800
H274        H  0.69245924  0.39253202  0.11324635     0.05600
C275        C  0.50421691  0.40976012  0.11642317    -0.20200
C276        C  0.48680077  0.38051109  0.12376296    -0.06800
C277        C  0.46031287  0.36229705  0.10497434     0.14100
C278        C  0.45288190  0.37348263  0.07719256    -0.20300
C279        C  0.47132614  0.40241172  0.06794003    -0.06800
C280        C  0.49687169  0.42091420  0.08850109     0.14100
C281        C  0.51728246  0.45209478  0.07920953    -0.23600
H282        H  0.52458159  0.42363140  0.13072572     0.15300
H283        H  0.43334556  0.35940396  0.06123551     0.15400
C284        C  0.44026283  0.33098388  0.11350637    -0.23600
H285        H  0.53645976  0.46346875  0.09760318     0.05600
H286        H  0.50643060  0.46189515  0.08298414     0.08800
H287        H  0.53335785  0.46380254  0.38639848     0.08800
H288        H  0.43441916  0.32770907  0.14368480     0.08800
H289        H  0.45060446  0.32104216  0.10688079     0.08800
H290        H  0.42026364  0.31996657  0.09678651     0.05600
C291        C  0.46542607  0.37146071  0.21895501    -0.20200
C292        C  0.49408463  0.38736612  0.20757542    -0.06800
C293        C  0.51440825  0.41479324  0.22268366     0.14100
C294        C  0.50592925  0.42483544  0.25053175    -0.20300
C295        C  0.47772811  0.40811614  0.26382992    -0.06800
C296        C  0.45698166  0.38146115  0.24706135     0.14100
C297        C  0.42619252  0.36246230  0.25952135    -0.23600
H298        H  0.44988981  0.35037168  0.20756274     0.15300
H299        H  0.52182164  0.44528244  0.26344089     0.15400
C300        C  0.54542287  0.43351632  0.21116889    -0.23600
H301        H  0.41218171  0.35781592  0.23520496     0.05600
H302        H  0.42156357  0.37206660  0.28183151     0.08800
H303        H  0.41975966  0.34846153  0.91871839     0.08800
H304        H  0.55139307  0.45396374  0.20021783     0.08800
H305        H  0.55016011  0.42394535  0.18894899     0.08800
H306        H  0.55897657  0.43783241  0.23591071     0.05600
C307        C  0.83549946  0.37944975  0.11795039    -0.20200
C308        C  0.82765953  0.39705150  0.12472960    -0.06800
C309        C  0.84091579  0.42250104  0.10405837     0.14100
C310        C  0.86114543  0.42935218  0.07660011    -0.20300
C311        C  0.86775372  0.41097578  0.06819147    -0.06800
C312        C  0.85514073  0.38591544  0.08950099     0.14100
C313        C  0.86071108  0.36501775  0.08047982    -0.23600
H314        H  0.82465500  0.35956012  0.13310046     0.15300
H315        H  0.87057231  0.44841643  0.05991085     0.15400
C316        C  0.83312543  0.44214641  0.10873249    -0.23600
H317        H  0.84819932  0.34600470  0.09891202     0.05600
H318        H  0.88369907  0.37512194  0.08449437     0.08800
H319        H  0.85461519  0.35782378  0.05092418     0.08800
H320        H  0.81659791  0.43490771  0.13049837     0.08800
H321        H  0.82476547  0.44372809  0.08175526     0.08800
H322        H  0.85245970  0.46359646  0.11673444     0.05600
C323        C  0.83404934  0.37765164  0.21808329    -0.20200
C324        C  0.82764725  0.39614975  0.20935356    -0.06800
C325        C  0.84260217  0.42273529  0.22740655     0.14100
C326        C  0.86275898  0.42968965  0.25508916    -0.20300
C327        C  0.86782652  0.41044562  0.26560775    -0.06800
C328        C  0.85392501  0.38443275  0.24627349     0.14100
C329        C  0.85855994  0.36308057  0.25704778    -0.23600
H330        H  0.82207103  0.35706907  0.20455652     0.15300
H331        H  0.87348720  0.44959229  0.27016558     0.15400
C332        C  0.83637014  0.44320069  0.21876555    -0.23600
H333        H  0.84527578  0.34348805  0.23982473     0.05600
H334        H  0.85279857  0.35702297  0.28698911     0.08800
H335        H  0.88130904  0.37232022  0.25276951     0.08800
H336        H  0.81357810  0.43316478  0.22459406     0.08800
H337        H  0.84109131  0.44949896  0.18885226     0.08800
H338        H  0.84968473  0.46279414  0.23597259     0.05600
C339        C  0.04805779  0.49322569  0.21496205    -0.20200
C340        C  0.05846298  0.47789407  0.20783659    -0.06800
C341        C  0.04657166  0.45218776  0.22723658     0.14100
C342        C  0.02550654  0.44314757  0.25442818    -0.20300
C343        C  0.01642513  0.45940858  0.26344005    -0.06800
C344        C  0.02733226  0.48444968  0.24281642     0.14100
C345        C  0.01893468  0.50311529  0.25198440    -0.23600
H346        H  0.05768202  0.51321701  0.20055866     0.15300
H347        H  0.01725447  0.42401305  0.27033703     0.15400
C348        C  0.05645841  0.43441048  0.22116818    -0.23600
H349        H  0.03070444  0.52260733  0.23439568     0.05600
H350        H  0.02379056  0.50972335  0.28186706     0.08800
H351        H  0.99577948  0.49149558  0.24676233     0.08800
H352        H  0.06547975  0.43315356  0.24773078     0.08800
H353        H  0.07302060  0.44302622  0.19910570     0.08800
H354        H  0.03799558  0.41264353  0.21263916     0.05600
C355        C  0.02632965  0.44658564  0.07684512    -0.20200
C356        C  0.01769395  0.46318971  0.06754503    -0.06800
C357        C  0.02880399  0.48831742  0.08807403     0.14100
C358        C  0.04922218  0.49671408  0.11619836    -0.20300
C359        C  0.05919992  0.48103288  0.12355917    -0.06800
C360        C  0.04724976  0.45538463  0.10412194     0.14100
C361        C  0.05719196  0.43760723  0.10992207    -0.23600
H362        H  0.01793083  0.42740980  0.06098379     0.15300
H363        H  0.05891292  0.51671479  0.13061090     0.15400
C364        C  0.02133388  0.50784270  0.07948338    -0.23600
H365        H  0.06591143  0.43625414  0.08316227     0.05600
H366        H  0.03883026  0.41588015  0.11876966     0.08800
H367        H  0.07406837  0.44630489  0.13156820     0.08800
H368        H  0.00941787  0.49391265  0.38647623     0.08800
H369        H  0.04633334  0.52009437  0.39855192     0.08800
H370        H  0.01148002  0.50965076  0.10463541     0.05600
C371        C  0.31639501  0.54190527  0.25108894    -0.20200
C372        C  0.33084684  0.57124505  0.25607362    -0.06800
C373        C  0.35685660  0.59056222  0.23615906     0.14100
C374        C  0.36771687  0.57994857  0.21314891    -0.20300
C375        C  0.35326814  0.55070379  0.20883774    -0.06800
C376        C  0.32749446  0.53149243  0.22848981     0.14100
C377        C  0.31210717  0.49993810  0.22688237    -0.23600
H378        H  0.29656431  0.52676483  0.26594882     0.15300
H379        H  0.38811407  0.59461960  0.19925190     0.15400
C380        C  0.37376736  0.62231099  0.23921789    -0.23600
H381        H  0.29217472  0.48793170  0.24383153     0.05600
H382        H  0.32608946  0.49493822  0.23797574     0.08800
H383        H  0.30623098  0.49243718  0.19760334     0.08800
H384        H  0.38084472  0.62917631  0.26864472     0.08800
H385        H  0.36047433  0.62861266  0.22983541     0.08800
H386        H  0.39322616  0.63384080  0.22133972     0.05600
C387        C  0.31264444  0.53898043  0.08346983    -0.20200
C388        C  0.32692142  0.56825978  0.07938521    -0.06800
C389        C  0.35310929  0.58757519  0.09865548     0.14100
C390        C  0.36440647  0.57709369  0.12080761    -0.20300
C391        C  0.35031881  0.54790234  0.12455215    -0.06800
C392        C  0.32429012  0.52857341  0.10517770     0.14100
C393        C  0.30911533  0.49704778  0.10633652    -0.23600
H394        H  0.29293285  0.52419618  0.06817369     0.15300
H395        H  0.38491720  0.59185853  0.13435989     0.15400
C396        C  0.36921696  0.61927863  0.09651134    -0.23600
H397        H  0.28902622  0.48511328  0.08971251     0.05600
H398        H  0.30350832  0.48925571  0.13555439     0.08800
H399        H  0.32301791  0.49219804  0.09453119     0.08800
H400        H  0.35493069  0.62462677  0.10468792     0.08800
H401        H  0.37743079  0.62707357  0.06767820     0.08800
H402        H  0.38793447  0.63083391  0.11572193     0.05600
C403        C  0.17747128  0.51911484  0.20881689    -0.20200
C404        C  0.16330286  0.53121017  0.20744133    -0.06800
C405        C  0.17427383  0.55627495  0.22756392     0.14100
C406        C  0.19896376  0.56848691  0.24915481    -0.20300
C407        C  0.21265958  0.55584350  0.25245604    -0.06800
C408        C  0.20191018  0.53092048  0.23137050     0.14100
C409        C  0.21525828  0.51605447  0.23317036    -0.23600
H410        H  0.16884898  0.49989884  0.19298283     0.15300
H411        H  0.20705305  0.58772382  0.26457090     0.15400
C412        C  0.15975416  0.57006273  0.22670857    -0.23600
H413        H  0.20381054  0.49688382  0.21505141     0.05600
H414        H  0.21446493  0.50909464  0.26239723     0.08800
H415        H  0.23776833  0.53056818  0.22337426     0.08800
H416        H  0.13803178  0.55555638  0.23904056     0.08800
H417        H  0.15796698  0.57510749  0.19739909     0.08800
H418        H  0.17178662  0.59011203  0.24306608     0.05600
C419        C  0.18467840  0.56235798  0.12589254    -0.20200
C420        C  0.16372422  0.53286390  0.12408585    -0.06800
C421        C  0.16801882  0.51673706  0.10072469     0.14100
C422        C  0.19275505  0.53062584  0.07867217    -0.20300
C423        C  0.21339721  0.56043852  0.07883806    -0.06800
C424        C  0.20949034  0.57644505  0.10371922     0.14100
C425        C  0.23079909  0.60826638  0.10700006    -0.23600
H426        H  0.18120807  0.57453594  0.14403105     0.15300
H427        H  0.19545676  0.51792548  0.06036519     0.15400
C428        C  0.14652890  0.48481215  0.09903256    -0.23600
H429        H  0.22468938  0.61675547  0.12913744     0.05600
H430        H  0.23183117  0.61822318  0.08008512     0.08800
H431        H  0.25218178  0.61449042  0.11442553     0.08800
H432        H  0.12584890  0.47847467  0.08791763     0.08800
H433        H  0.14319137  0.47573094  0.12755167     0.08800
H434        H  0.15380655  0.47544098  0.08041946     0.05600
C435        C  0.35650026  0.68823759  0.09947272    -0.20200
C436        C  0.33245394  0.67956891  0.07787975    -0.06800
C437        C  0.32044504  0.69404782  0.08280971     0.14100
C438        C  0.33342188  0.71704738  0.10761862    -0.20300
C439        C  0.35794884  0.72623693  0.12785717    -0.06800
C440        C  0.36961698  0.71157499  0.12394223     0.14100
C441        C  0.39660223  0.72070683  0.14356930    -0.23600
H442        H  0.36594910  0.67750518  0.09620722     0.15300
H443        H  0.32474891  0.72853391  0.11066355     0.15400
C444        C  0.29414085  0.68600160  0.06215990    -0.23600
H445        H  0.41258646  0.72499665  0.12241980     0.05600
H446        H  0.39179933  0.70344838  0.16250696     0.08800
H447        H  0.40651230  0.74028823  0.16033730     0.08800
H448        H  0.27616430  0.66336432  0.06740289     0.08800
H449        H  0.29858416  0.68993555  0.03162620     0.08800
H450        H  0.28717328  0.69866128  0.07156630     0.05600
C451        C  0.31559377  0.68252616  0.23813708    -0.20200
C452        C  0.33291303  0.67842617  0.25926801    -0.06800
C453        C  0.36320635  0.69849856  0.25546570     0.14100
C454        C  0.37485895  0.72202359  0.23189045    -0.20300
C455        C  0.35751490  0.72632497  0.21186409    -0.06800
C456        C  0.32747225  0.70644174  0.21509168     0.14100
C457        C  0.30733705  0.71042653  0.19625388    -0.23600
H458        H  0.29251372  0.66759154  0.24071387     0.15300
H459        H  0.39789483  0.73763078  0.22946795     0.15400
C460        C  0.38387965  0.69599245  0.27609852    -0.23600
H461        H  0.29381045  0.71045006  0.21781390     0.05600
H462        H  0.29329453  0.69265434  0.17644070     0.08800
H463        H  0.31855396  0.73067994  0.18057604     0.08800
H464        H  0.37928977  0.67537496  0.26943980     0.08800
H465        H  0.38236482  0.69799272  0.30680140     0.08800
H466        H  0.40643103  0.71300146  0.26796629     0.05600
C467        C  0.43800539  0.51978855  0.26060005    -0.20200
C468        C  0.42323257  0.49044626  0.26380948    -0.06800
C469        C  0.40212719  0.47206622  0.23702323     0.14100
C470        C  0.39457598  0.48336237  0.20957477    -0.20300
C471        C  0.40777829  0.51255728  0.20829235    -0.06800
C472        C  0.43068211  0.53111853  0.23308762     0.14100
C473        C  0.44718492  0.56287331  0.23222487    -0.23600
H474        H  0.45440450  0.53386448  0.28100688     0.15300
H475        H  0.37690526  0.46911015  0.19080825     0.15400
C476        C  0.38632219  0.44044549  0.23885941    -0.23600
H477        H  0.44443983  0.57011927  0.25932446     0.05600
H478        H  0.44032164  0.57005810  0.20929181     0.08800
H479        H  0.47025240  0.57324700  0.22803189     0.08800
H480        H  0.37113547  0.43430850  0.95114170     0.08800
H481        H  0.40163181  0.43567366  0.23552071     0.08800
H482        H  0.37003649  0.42915515  0.21627106     0.05600
C483        C  0.44262573  0.51944877  0.08217223    -0.20200
C484        C  0.42437022  0.49166965  0.06819189    -0.06800
C485        C  0.39664064  0.47243045  0.08338001     0.14100
C486        C  0.38729543  0.48177196  0.11107217    -0.20300
C487        C  0.40500196  0.50993953  0.12372883    -0.06800
C488        C  0.43320482  0.52883659  0.10979120     0.14100
C489        C  0.45281709  0.55923213  0.12269498    -0.23600
H490        H  0.46372079  0.53422133  0.06996042     0.15300
H491        H  0.36552302  0.46749421  0.12141135     0.15400
C492        C  0.37634540  0.44253106  0.06866690    -0.23600
H493        H  0.47383027  0.57135255  0.10821766     0.05600
H494        H  0.45668253  0.55986135  0.15324508     0.08800
H495        H  0.44299643  0.56985968  0.11685476     0.08800
H496        H  0.38575047  0.43132147  0.07272218     0.08800
H497        H  0.37236702  0.44291974  0.03827973     0.08800
H498        H  0.35544355  0.43030324  0.08342839     0.05600
C499        C  0.45241287  0.86403923  0.25578356    -0.20200
C500        C  0.43783217  0.87505169  0.26455149    -0.06800
C501        C  0.41270867  0.86538427  0.24450811     0.14100
C502        C  0.40176531  0.84359011  0.21793577    -0.20300
C503        C  0.41517632  0.83109191  0.21143617    -0.06800
C504        C  0.44128541  0.84204253  0.22957263     0.14100
C505        C  0.45686163  0.82982642  0.22228301    -0.23600
H506        H  0.47157558  0.87142061  0.27133278     0.15300
H507        H  0.38173775  0.83505959  0.20392654     0.15400
C508        C  0.39630974  0.87656088  0.25300028    -0.23600
H509        H  0.47726565  0.84130575  0.23817578     0.05600
H510        H  0.46188129  0.83145929  0.19193947     0.08800
H511        H  0.44341703  0.80718681  0.23090204     0.08800
H512        H  0.40987883  0.89967811  0.24705482     0.08800
H513        H  0.38218291  0.86434320  0.94704664     0.08800
H514        H  0.37668115  0.86601624  0.23560042     0.05600
C515        C  0.43754508  0.84709233  0.11684123    -0.20200
C516        C  0.40879704  0.82975026  0.12783973    -0.06800
C517        C  0.38993933  0.83438884  0.11246647     0.14100
C518        C  0.39985104  0.85493904  0.08436269    -0.20300
C519        C  0.42806252  0.87081917  0.07132602    -0.06800
C520        C  0.44746291  0.86766562  0.08872174     0.14100
C521        C  0.47841196  0.88491392  0.07731531    -0.23600
H522        H  0.45195165  0.84348902  0.12872362     0.15300
H523        H  0.38503784  0.85745527  0.07104909     0.15400
C524        C  0.35898286  0.81719778  0.12395806    -0.23600
H525        H  0.49218756  0.89648726  0.10214009     0.05600
H526        H  0.48430494  0.90083725  0.05532135     0.08800
H527        H  0.48715246  0.86736011  0.38916913     0.08800
H528        H  0.35453222  0.83167866  0.13442329     0.08800
H529        H  0.35316256  0.80169109  0.14656450     0.08800
H530        H  0.34509933  0.80535521  0.09933460     0.05600
C531        C  0.46102006  0.93262447  0.66659443     0.03200
C532        C  0.45056491  0.91715755  0.36839802    -0.12900
C533        C  0.44319186  0.88987739  0.36778826     0.00700
C534        C  0.44046466  0.87711486  0.33360420    -0.11500
C535        C  0.44848659  0.89067041  0.63206821     0.03200
C536        C  0.45909239  0.91916558  0.63251509    -0.10900
H537        H  0.45069938  0.92550053  0.39535356     0.08800
H538        H  0.43338666  0.85546798  0.33325125     0.06300
H539        H  0.46539595  0.93018371  0.60593131     0.06200
C540        C  0.44211899  0.45473806  0.66785668     0.03200
C541        C  0.43082721  0.45804829  0.36636742    -0.12900
C542        C  0.41926988  0.47273335  0.36611261     0.00700
C543        C  0.41652746  0.48209357  0.66790768    -0.11500
C544        C  0.42067582  0.47341243  0.63401280     0.03200
C545        C  0.43269430  0.45920483  0.63403752    -0.10900
H546        H  0.43131978  0.44964563  0.39287558     0.08800
H547        H  0.40673439  0.49264440  0.66786127     0.06300
H548        H  0.43460183  0.45203452  0.60730535     0.06200
C549        C  0.40605129  0.80561903  0.51967208     0.02400
C550        C  0.40593350  0.80543958  0.48009785     0.02300
C551        C  0.39322157  0.77973454  0.46092896    -0.18200
C552        C  0.37932779  0.75405676  0.48050859     0.02400
C553        C  0.37744582  0.75394466  0.51990488     0.02300
C554        C  0.39142928  0.77975587  0.53919801    -0.18200
H555        H  0.39060358  0.77968296  0.56964223     0.04400
H556        H  0.39332595  0.77959854  0.43045955     0.04400
O557        O  0.29161633  0.63586066  0.61532603    -0.85300
O558        O  0.23871075  0.58539972  0.63386099    -0.82300
C559        C  0.23475497  0.56599699  0.61314904     0.98200
O560        O  0.25070865  0.55880225  0.61698869    -0.82400
O561        O  0.29653400  0.56038800  0.63820579    -0.85000
C562        C  0.31697991  0.57795602  0.61673341     1.02700
O563        O  0.32877620  0.60410940  0.61925457    -0.77800
O564        O  0.33449502  0.65266198  0.63485102    -0.77900
C565        C  0.31850793  0.65340649  0.61229101     1.02700
O566        O  0.30163858  0.64878896  0.36637527    -0.85300
O567        O  0.25120919  0.59515273  0.38251603    -0.82300
C568        C  0.23327866  0.56837403  0.38394131     0.98200
O569        O  0.23496659  0.55349745  0.36046305    -0.82400
O570        O  0.28286366  0.55870042  0.38066788    -0.85000
C571        C  0.30903324  0.57122216  0.38709539     1.02700
O572        O  0.32808705  0.59252367  0.36785016    -0.77800
O573        O  0.32846948  0.63767894  0.38663057    -0.77900
C574        C  0.32026607  0.65282050  0.38888263     1.02600
Cr575      Cr  0.27282205  0.61638622  0.66361285     1.93700
Cr576      Cr  0.26879497  0.56258856  0.66596694     1.93200
Cr577      Cr  0.32770296  0.62135750  0.66622555     1.39100
O578        O  0.28983648  0.60015347  0.66527291    -1.23000
C579        C  0.37854765  0.50680266  0.48082223     0.02400
C580        C  0.37996495  0.50792732  0.52033491     0.02300
C581        C  0.36776983  0.51849996  0.54001851    -0.18200
C582        C  0.35438601  0.52813005  0.52119319     0.02400
C583        C  0.35244664  0.52656856  0.48157070     0.02300
C584        C  0.36505937  0.51637108  0.46197636    -0.18200
H585        H  0.36521664  0.51668018  0.43154228     0.04400
H586        H  0.36922209  0.51977377  0.57043434     0.04400
C587        C  0.13249036  0.50526073  0.51972596     0.02400
C588        C  0.13274352  0.50573264  0.48009255     0.02300
C589        C  0.10681211  0.49206238  0.46058086    -0.18200
C590        C  0.08061886  0.47786794  0.47960627     0.02400
C591        C  0.08010666  0.47632770  0.51917815     0.02300
C592        C  0.10611417  0.48986739  0.53872682    -0.18200
H593        H  0.10589797  0.48927094  0.56914024     0.04400
H594        H  0.10709965  0.49327191  0.43019033     0.04400
C595        C  0.95702657  0.43842218  0.66578752     0.03200
C596        C  0.96994499  0.43814845  0.36654437    -0.12900
C597        C  0.99784017  0.44652278  0.36616937     0.00700
C598        C  0.01108909  0.44998227  0.66519206    -0.11500
C599        C  0.99599785  0.44318019  0.63158533     0.03200
C600        C  0.96863027  0.43637642  0.63217054    -0.10900
H601        H  0.95921957  0.43241077  0.39328915     0.08800
H602        H  0.03214124  0.45515039  0.66500692     0.06300
H603        H  0.95696636  0.42976327  0.60606409     0.06200
C604        C  0.92823830  0.43260637  0.66638693     0.03200
C605        C  0.91470221  0.43027568  0.36760041    -0.12900
C606        C  0.88692498  0.42233409  0.36810245     0.00700
C607        C  0.87438175  0.42145159  0.66745425    -0.11500
C608        C  0.88754779  0.42486887  0.63323584     0.03200
C609        C  0.91465578  0.43126266  0.63267340    -0.10900
H610        H  0.92611681  0.43666840  0.39385550     0.08800
H611        H  0.85336858  0.41640184  0.66775939     0.06300
H612        H  0.92455597  0.43491860  0.60561032     0.06200
C613        C  0.45579609  0.44006766  0.66759747     0.03200
C614        C  0.46602628  0.43652494  0.63379641    -0.12900
C615        C  0.47715382  0.42144335  0.63334231     0.00700
C616        C  0.47994806  0.41126840  0.66688918    -0.11500
C617        C  0.47501631  0.41973702  0.36694320     0.03200
C618        C  0.46349445  0.43443944  0.36700408    -0.10900
H619        H  0.46550998  0.44512095  0.60742116     0.08800
H620        H  0.48902756  0.40005799  0.66662469     0.06300
H621        H  0.46121797  0.44120405  0.39379694     0.06200
C622        C  0.80450477  0.39268602  0.48052848     0.02400
C623        C  0.80352943  0.39148602  0.52011370     0.02300
C624        C  0.77724016  0.37864513  0.53837935    -0.18200
C625        C  0.75192018  0.36696381  0.51805045     0.02400
C626        C  0.75281520  0.36769609  0.47846985     0.02300
C627        C  0.77911345  0.38076882  0.46023488    -0.18200
H628        H  0.77978850  0.38140305  0.42977417     0.04400
H629        H  0.77646148  0.37773015  0.56883656     0.04400
C630        C  0.50627416  0.37590344  0.48046132     0.02400
C631        C  0.51130247  0.38049729  0.51941874     0.02300
C632        C  0.52342369  0.36949649  0.53831783    -0.18200
C633        C  0.53164258  0.35499263  0.51906433    -0.00400
C634        C  0.52660532  0.35039757  0.48004965     0.02300
C635        C  0.51430161  0.36119633  0.46121267    -0.18200
H636        H  0.51164572  0.35881291  0.43102417     0.04400
H637        H  0.52633751  0.37213321  0.56844343     0.04400
O638        O  0.58549154  0.23594841  0.63775134    -0.85300
O639        O  0.63371572  0.28798519  0.61630123    -0.82300
C640        C  0.65185768  0.31445785  0.61274299     0.98200
O641        O  0.65121021  0.33067814  0.63488859    -0.82400
O642        O  0.60156699  0.32341504  0.61846770    -0.85000
C643        C  0.57509339  0.31085979  0.61501343     1.02700
O644        O  0.55741128  0.29079254  0.63699642    -0.77800
O645        O  0.55707784  0.24563499  0.61932823    -0.77900
C646        C  0.56646477  0.23164522  0.61573848     1.02700
O647        O  0.59641197  0.25052899  0.38295676    -0.85300
O648        O  0.64840944  0.29934021  0.36063304    -0.82300
C649        C  0.65307671  0.31845503  0.38243079     0.98200
O650        O  0.63757806  0.32633655  0.38007773    -0.82400
O651        O  0.59009479  0.32368578  0.36341757    -0.85000
C652        C  0.56948498  0.30571073  0.38457950     1.02700
O653        O  0.55710621  0.27951153  0.38081019    -0.77800
O654        O  0.55254351  0.23160349  0.36531160    -0.77900
C655        C  0.56979327  0.23201256  0.38693645     1.02600
Cr656      Cr  0.61614722  0.27078555  0.66544428     1.93700
Cr657      Cr  0.61925400  0.32383752  0.66596204     1.93200
Cr658      Cr  0.56067318  0.26448834  0.66742397     1.39100
O659        O  0.59859809  0.28637477  0.66637531    -1.23000
C660        C  0.52486039  0.13433280  0.48150058     0.02400
C661        C  0.52393164  0.13488051  0.52100570     0.02300
C662        C  0.51375458  0.11025726  0.54140239    -0.18200
C663        C  0.50401217  0.08481346  0.52331423     0.02400
C664        C  0.50521644  0.08435128  0.48371974     0.02300
C665        C  0.51470659  0.10887022  0.46337593    -0.18200
H666        H  0.51489546  0.10829158  0.43299426     0.04400
H667        H  0.51440491  0.11123853  0.57178810     0.04400
C668        C  0.47138722  0.96294500  0.66738912     0.03200
C669        C  0.47492104  0.97866530  0.36903312    -0.12900
C670        C  0.48226829  0.00594696  0.36957032     0.00700
C671        C  0.48918356  0.01902978  0.66894796    -0.11500
C672        C  0.48247592  0.00490898  0.63478368     0.03200
C673        C  0.47299331  0.97685178  0.63400598    -0.10900
H674        H  0.47659527  0.97055152  0.39514855     0.08800
H675        H  0.49556536  0.04043160  0.66963079     0.06300
H676        H  0.46620172  0.96612651  0.60724306     0.06200
C677        C  0.46661043  0.02826603  0.59889743    -0.20200
C678        C  0.48409822  0.01985078  0.60059194    -0.06800
C679        C  0.50591480  0.03014643  0.57368530     0.14100
C680        C  0.51082304  0.05006992  0.54699676    -0.20300
C681        C  0.49460240  0.06003595  0.54704366    -0.06800
C682        C  0.47170960  0.04844548  0.57276123     0.14100
C683        C  0.45301909  0.05774827  0.57367006    -0.23600
H684        H  0.44996411  0.02026669  0.61978807     0.15300
H685        H  0.52850048  0.05919405  0.52751473     0.15400
C686        C  0.52508730  0.02150890  0.57456938    -0.23600
H687        H  0.43504731  0.04489377  0.59381148     0.05600
H688        H  0.44374144  0.05538714  0.54557833     0.08800
H689        H  0.46548017  0.08018896  0.58262112     0.08800
H690        H  0.51216256  0.99822960  0.57041431     0.08800
H691        H  0.53626633  0.02731620  0.60202149     0.08800
H692        H  0.54152083  0.03214789  0.55207931     0.05600
C693        C  0.46560810  0.01776642  0.42404268    -0.20200
C694        C  0.48850689  0.02170773  0.40496965    -0.06800
C695        C  0.51678456  0.04380637  0.41602122     0.14100
C696        C  0.52152595  0.06249664  0.44455701    -0.20300
C697        C  0.49862960  0.05973146  0.46195879    -0.06800
C698        C  0.47032424  0.03660036  0.45233897     0.14100
C699        C  0.44509937  0.03254035  0.47038791    -0.23600
H700        H  0.44394968  0.00084789  0.41517223     0.15300
H701        H  0.54324075  0.08041405  0.45179788     0.15400
C702        C  0.54187555  0.04833670  0.39659649    -0.23600
H703        H  0.42457012  0.01445094  0.45782845     0.05600
H704        H  0.44665890  0.05196547  0.46695880     0.08800
H705        H  0.44456727  0.02781835  0.50056140     0.08800
H706        H  0.54177016  0.05273850  0.36633766     0.08800
H707        H  0.54050864  0.02898866  0.39955743     0.08800
H708        H  0.56254090  0.06652717  0.40877782     0.05600
C709        C  0.57426086  0.20460363  0.57281803    -0.20200
C710        C  0.55525641  0.20923717  0.58686325    -0.06800
C711        C  0.52603103  0.19031195  0.57665576     0.14100
C712        C  0.51649382  0.16650883  0.55437038    -0.20300
C713        C  0.53544273  0.16134184  0.54199400    -0.06800
C714        C  0.56470425  0.18071249  0.55124356     0.14100
C715        C  0.58626974  0.17622064  0.54048387    -0.23600
H716        H  0.59671338  0.21908193  0.58028368     0.15300
H717        H  0.49404206  0.15147950  0.54720704     0.15400
C718        C  0.50463053  0.19429089  0.59033945    -0.23600
H719        H  0.59736685  0.17681429  0.56605439     0.05600
H720        H  0.60232792  0.19340776  0.52113678     0.08800
H721        H  0.57641938  0.15545634  0.52687841     0.08800
H722        H  0.51034698  0.21463667  0.57950536     0.08800
H723        H  0.50436840  0.19439482  0.62149858     0.08800
H724        H  0.48265675  0.17700470  0.58049666     0.05600
C725        C  0.57286822  0.19630129  0.41514249    -0.20200
C726        C  0.55897558  0.20867458  0.41395606    -0.06800
C727        C  0.53442793  0.19728672  0.43632263     0.14100
C728        C  0.52396126  0.17322222  0.45849825    -0.20300
C729        C  0.53735146  0.16027959  0.45861753    -0.06800
C730        C  0.56221952  0.17204810  0.43670198     0.14100
C731        C  0.57765961  0.15920231  0.43544236    -0.23600
H732        H  0.59160084  0.20502111  0.39778932     0.15300
H733        H  0.50488042  0.16408144  0.47524256     0.15400
C734        C  0.51960781  0.21070992  0.43752748    -0.23600
H735        H  0.59741865  0.17217090  0.41822230     0.05600
H736        H  0.56388483  0.13775086  0.42275725     0.08800
H737        H  0.58397356  0.15774753  0.46401039     0.08800
H738        H  0.51049446  0.20926916  0.40960911     0.08800
H739        H  0.53509440  0.23335219  0.44584264     0.08800
H740        H  0.50178220  0.19995549  0.45813882     0.05600
C741        C  0.56624144  0.35140003  0.45521679    -0.20200
C742        C  0.53675260  0.33709979  0.45772808    -0.06800
C743        C  0.51784436  0.31104048  0.43858833     0.14100
C744        C  0.52906655  0.30059397  0.41613240    -0.20300
C745        C  0.55870923  0.31566476  0.41226199    -0.06800
C746        C  0.57742394  0.34088923  0.43313386     0.14100
C747        C  0.60910690  0.35610135  0.43373160    -0.23600
H748        H  0.58064713  0.37114028  0.47033715     0.15300
H749        H  0.51464416  0.28107877  0.40050900     0.15400
C750        C  0.48592110  0.29421148  0.44177897    -0.23600
H751        H  0.62023553  0.37405047  0.45393470     0.05600
H752        H  0.61853228  0.36490866  0.40563241     0.08800
H753        H  0.61291015  0.34080693  0.44257734     0.08800
H754        H  0.47925236  0.30635339  0.42935580     0.08800
H755        H  0.47940370  0.28962861  0.47171441     0.08800
H756        H  0.47438550  0.27365855  0.42663308     0.05600
C757        C  0.52942070  0.31452996  0.54351358    -0.20200
C758        C  0.54446805  0.34398908  0.54075755    -0.06800
C759        C  0.57088466  0.36238459  0.55965694     0.14100
C760        C  0.58075499  0.35081857  0.58250700    -0.20300
C761        C  0.56489594  0.32134631  0.58710950    -0.06800
C762        C  0.53932855  0.30293945  0.56633018     0.14100
C763        C  0.52284127  0.27118918  0.56720427    -0.23600
H764        H  0.50945646  0.30051686  0.52838798     0.15300
H765        H  0.60055783  0.36494688  0.59792001     0.15400
C766        C  0.58884579  0.39421213  0.55572380    -0.23600
H767        H  0.50452117  0.26029463  0.54733990     0.05600
H768        H  0.51412690  0.26279656  0.59568734     0.08800
H769        H  0.53713881  0.26584707  0.55902839     0.08800
H770        H  0.57745484  0.40195877  0.56752732     0.08800
H771        H  0.59365723  0.40031095  0.52568611     0.08800
H772        H  0.60949531  0.40520140  0.57090285     0.05600
C773        C  0.69645817  0.35681654  0.58489774    -0.20200
C774        C  0.67547591  0.32710042  0.58476561    -0.06800
C775        C  0.67886853  0.31074799  0.55982399     0.14100
C776        C  0.70363264  0.32450358  0.53758799    -0.20300
C777        C  0.72489749  0.35400693  0.53905308    -0.06800
C778        C  0.72090864  0.37041313  0.56240526     0.14100
C779        C  0.74200096  0.40234821  0.56447079    -0.23600
H780        H  0.69419252  0.36980377  0.60326020     0.15300
H781        H  0.70685533  0.31199043  0.51985864     0.15400
C782        C  0.65710976  0.27889820  0.55661209    -0.23600
H783        H  0.75101356  0.40881006  0.59327187     0.05600
H784        H  0.73088981  0.41159016  0.55798139     0.08800
H785        H  0.75988420  0.41157786  0.54429719     0.08800
H786        H  0.63596951  0.27310366  0.54873811     0.08800
H787        H  0.65545903  0.26866694  0.58361688     0.08800
H788        H  0.66308803  0.27012391  0.53474513     0.05600
C789        C  0.68913886  0.31684303  0.41549850    -0.20200
C790        C  0.67758032  0.33139427  0.40948196    -0.06800
C791        C  0.69119802  0.35823832  0.42701425     0.14100
C792        C  0.71504342  0.36909051  0.45047443    -0.20300
C793        C  0.72659527  0.35462322  0.45541636    -0.06800
C794        C  0.71378866  0.32843402  0.43719763     0.14100
C795        C  0.72656214  0.31299963  0.43970909    -0.23600
H796        H  0.67935364  0.29647307  0.40216074     0.15300
H797        H  0.72536031  0.38945596  0.46416485     0.15400
C798        C  0.68170162  0.37619915  0.42024485    -0.23600
H799        H  0.71350431  0.29249387  0.42437285     0.05600
H800        H  0.72818291  0.30850273  0.46936268     0.08800
H801        H  0.74826972  0.32623058  0.42714149     0.08800
H802        H  0.65989843  0.36508556  0.43134086     0.08800
H803        H  0.68217062  0.38032258  0.38974527     0.08800
H804        H  0.69567089  0.39703005  0.43472272     0.05600
C805        C  0.51216536  0.41721602  0.45172415    -0.20200
C806        C  0.49470124  0.38779665  0.45812354    -0.06800
C807        C  0.46850936  0.36986123  0.43864060     0.14100
C808        C  0.46163604  0.38143345  0.41085881    -0.20300
C809        C  0.48027109  0.41043704  0.40214384    -0.06800
C810        C  0.50527226  0.42876628  0.42369817     0.14100
C811        C  0.52538110  0.46013273  0.41567813    -0.23600
H812        H  0.53214317  0.43090245  0.46693075     0.15300
H813        H  0.44230671  0.36756112  0.39442210     0.15400
C814        C  0.44805949  0.33843235  0.44644801    -0.23600
H815        H  0.54410113  0.47135866  0.43487812     0.05600
H816        H  0.51401213  0.46940917  0.41939489     0.08800
H817        H  0.52773053  0.46061914  0.72242535     0.08800
H818        H  0.44193163  0.33474022  0.47651090     0.08800
H819        H  0.45808157  0.32825608  0.43949474     0.08800
H820        H  0.42821360  0.32785088  0.42949791     0.05600
C821        C  0.47369831  0.38101201  0.54887653    -0.20200
C822        C  0.50285775  0.39523230  0.54195479    -0.06800
C823        C  0.52328834  0.42085715  0.56122837     0.14100
C824        C  0.51410639  0.43023421  0.58915327    -0.20300
C825        C  0.48502071  0.41484814  0.59791450    -0.06800
C826        C  0.46448864  0.39048380  0.57658272     0.14100
C827        C  0.43280998  0.37303644  0.58372617    -0.23600
H828        H  0.45801746  0.36135898  0.53424886     0.15300
H829        H  0.52985303  0.44898138  0.60541124     0.15400
C830        C  0.55490475  0.43839107  0.55360395    -0.23600
H831        H  0.42189003  0.37184445  0.55757885     0.05600
H832        H  0.42740440  0.38196156  0.60602874     0.08800
H833        H  0.42067668  0.34219626  0.27044711     0.08800
H834        H  0.56326217  0.46024272  0.54550119     0.08800
H835        H  0.55999825  0.42972850  0.53047488     0.08800
H836        H  0.56613294  0.43948060  0.57934313     0.05600
C837        C  0.84176679  0.38974187  0.45581357    -0.20200
C838        C  0.83118270  0.40524999  0.45889499    -0.06800
C839        C  0.84280884  0.42939605  0.43589305     0.14100
C840        C  0.86295961  0.43599493  0.40833423    -0.20300
C841        C  0.87208219  0.41930177  0.40349493    -0.06800
C842        C  0.86225608  0.39660222  0.42854595     0.14100
C843        C  0.87178254  0.37835045  0.42490188    -0.23600
H844        H  0.83247616  0.37095889  0.47291682     0.15300
H845        H  0.87051055  0.45343870  0.38915562     0.15400
C846        C  0.83353701  0.44791861  0.43867672    -0.23600
H847        H  0.86134677  0.36102655  0.44608051     0.05600
H848        H  0.89523966  0.39148983  0.42921240     0.08800
H849        H  0.86630687  0.36854946  0.39659083     0.08800
H850        H  0.81770519  0.44118588  0.46131119     0.08800
H851        H  0.82383589  0.44739899  0.41169292     0.08800
H852        H  0.85245327  0.47011829  0.44460058     0.05600
C853        C  0.83636116  0.38508396  0.55242037    -0.20200
C854        C  0.82920998  0.40296100  0.54355008    -0.06800
C855        C  0.84385892  0.42964349  0.56136567     0.14100
C856        C  0.86469370  0.43743062  0.58859088    -0.20300
C857        C  0.87106165  0.41906425  0.59847353    -0.06800
C858        C  0.85717374  0.39284223  0.57962925     0.14100
C859        C  0.86297062  0.37225659  0.58990146    -0.23600
H860        H  0.82451178  0.36432334  0.53947579     0.15300
H861        H  0.87504446  0.45728861  0.60361681     0.15400
C862        C  0.83669869  0.44937539  0.55275628    -0.23600
H863        H  0.84978796  0.35247750  0.57302732     0.05600
H864        H  0.85796919  0.36637121  0.62001278     0.08800
H865        H  0.88580632  0.38214890  0.58472302     0.08800
H866        H  0.81391158  0.43886330  0.55938064     0.08800
H867        H  0.84062378  0.45518210  0.52260743     0.08800
H868        H  0.84999147  0.46925732  0.56942142     0.05600
C869        C  0.04142785  0.47708507  0.54419159    -0.20200
C870        C  0.05334630  0.46280684  0.54135414    -0.06800
C871        C  0.04233635  0.43866932  0.56415561     0.14100
C872        C  0.02140042  0.43089853  0.59124183    -0.20300
C873        C  0.01102490  0.44653814  0.59601183    -0.06800
C874        C  0.02037605  0.46923093  0.57111025     0.14100
C875        C  0.00988292  0.48665842  0.57465568    -0.23600
H876        H  0.05005972  0.49572904  0.52706468     0.15300
H877        H  0.01429721  0.41347592  0.61021584     0.15400
C878        C  0.05292201  0.42128442  0.56148778    -0.23600
H879        H  0.02034572  0.50432799  0.55400149     0.05600
H880        H  0.01454788  0.49599234  0.60320308     0.08800
H881        H  0.98650499  0.47307777  0.56945600     0.08800
H882        H  0.06251851  0.42200490  0.58868701     0.08800
H883        H  0.06918992  0.42887072  0.53920751     0.08800
H884        H  0.03468491  0.39889720  0.55504529     0.05600
C885        C  0.01855546  0.43244396  0.41217707    -0.20200
C886        C  0.01379535  0.45186770  0.40120496    -0.06800
C887        C  0.02880659  0.47846915  0.41942339     0.14100
C888        C  0.04897606  0.48537844  0.44707693    -0.20300
C889        C  0.05471960  0.46654512  0.45686977    -0.06800
C890        C  0.03897357  0.43951613  0.43972326     0.14100
C891        C  0.04423889  0.41833034  0.44844973    -0.23600
H892        H  0.00744035  0.41227817  0.39767721     0.15300
H893        H  0.06157524  0.50636606  0.45954442     0.15400
C894        C  0.02552239  0.50084120  0.40876588    -0.23600
H895        H  0.05119370  0.41374467  0.42257394     0.05600
H896        H  0.02416051  0.39832483  0.45879561     0.08800
H897        H  0.06090775  0.42596619  0.47015225     0.08800
H898        H  0.01452877  0.50193313  0.71232292     0.08800
H899        H  0.05076580  0.52833976  0.72664984     0.08800
H900        H  0.01887519  0.50655900  0.43379956     0.05600
C901        C  0.30693226  0.53916017  0.57607367    -0.20200
C902        C  0.32706735  0.56695583  0.58967539    -0.06800
C903        C  0.35625930  0.58196355  0.58019999     0.14100
C904        C  0.36439532  0.56874770  0.55752396    -0.20300
C905        C  0.34415730  0.54112732  0.54382347    -0.06800
C906        C  0.31515968  0.52601306  0.55358400     0.14100
C907        C  0.29302765  0.49575772  0.54136222    -0.23600
H908        H  0.28459919  0.52742639  0.58360647     0.15300
H909        H  0.38673906  0.57992920  0.55051286     0.15400
C910        C  0.37911209  0.61129945  0.59506332    -0.23600
H911        H  0.27156972  0.48665496  0.55295768     0.05600
H912        H  0.29915367  0.48243606  0.55109353     0.08800
H913        H  0.29132908  0.49489531  0.51043204     0.08800
H914        H  0.37859325  0.61111440  0.62622759     0.08800
H915        H  0.37565517  0.62641030  0.58418857     0.08800
H916        H  0.40081959  0.61913635  0.58619214     0.05600
C917        C  0.30534392  0.53068600  0.41335196    -0.20200
C918        C  0.31781351  0.55963097  0.41513947    -0.06800
C919        C  0.34022847  0.57725178  0.44090407     0.14100
C920        C  0.35059373  0.56573398  0.46281585    -0.20300
C921        C  0.33907935  0.53703173  0.45977230    -0.06800
C922        C  0.31595195  0.51920190  0.43482153     0.14100
C923        C  0.30268227  0.48822000  0.42980806    -0.23600
H924        H  0.28824104  0.51730921  0.39343239     0.15300
H925        H  0.36853837  0.57950643  0.48139942     0.15400
C926        C  0.35307117  0.60810257  0.44569378    -0.23600
H927        H  0.28332600  0.47717918  0.41178692     0.05600
H928        H  0.29629481  0.47714972  0.45724309     0.08800
H929        H  0.31796466  0.48598059  0.41599672     0.08800
H930        H  0.33597501  0.60995343  0.45260062     0.08800
H931        H  0.36407632  0.62009813  0.41957384     0.08800
H932        H  0.36905589  0.61818377  0.46875279     0.05600
C933        C  0.17643412  0.51256326  0.54293496    -0.20200
C934        C  0.15945495  0.52161042  0.54194560    -0.06800
C935        C  0.16820570  0.54603329  0.56226320     0.14100
C936        C  0.19325858  0.56034979  0.58387635    -0.20300
C937        C  0.21001313  0.55092193  0.58629144    -0.06800
C938        C  0.20150152  0.52672144  0.56487348     0.14100
C939        C  0.21814702  0.51518303  0.56514140    -0.23600
H940        H  0.16965573  0.49390479  0.52701151     0.15300
H941        H  0.19943390  0.57887858  0.59959761     0.15400
C942        C  0.15122168  0.55721454  0.56110164    -0.23600
H943        H  0.20844187  0.49650614  0.54636953     0.05600
H944        H  0.21849872  0.50822425  0.59391916     0.08800
H945        H  0.24031102  0.53170659  0.55519327     0.08800
H946        H  0.12961175  0.54133256  0.57306536     0.08800
H947        H  0.14911481  0.56187218  0.53170550     0.08800
H948        H  0.16164161  0.57707589  0.57760102     0.05600
C949        C  0.17755778  0.55143461  0.45819046    -0.20200
C950        C  0.15976626  0.52170009  0.45814217    -0.06800
C951        C  0.16718023  0.50758438  0.43587114     0.14100
C952        C  0.19147100  0.52350352  0.41283314    -0.20300
C953        C  0.20907781  0.55344063  0.41161254    -0.06800
C954        C  0.20227728  0.56752612  0.43572326     0.14100
C955        C  0.22080385  0.59933417  0.43854941    -0.23600
H956        H  0.17182715  0.56212701  0.47559698     0.15300
H957        H  0.19654102  0.51224079  0.39543099     0.15400
C958        C  0.14965013  0.47568646  0.43666046    -0.23600
H959        H  0.21225845  0.60646146  0.45904276     0.05600
H960        H  0.22219643  0.60872430  0.41090120     0.08800
H961        H  0.24231915  0.60729423  0.44843181     0.08800
H962        H  0.12760177  0.46568678  0.42673076     0.08800
H963        H  0.14878066  0.46847201  0.46573763     0.08800
H964        H  0.15893443  0.46813634  0.41835522     0.05600
C965        C  0.36291562  0.69090911  0.42544798    -0.20200
C966        C  0.33419375  0.67715124  0.41545889    -0.06800
C967        C  0.32037177  0.68848610  0.42854582     0.14100
C968        C  0.33563067  0.71313418  0.45053040    -0.20300
C969        C  0.36445064  0.72728339  0.45906117    -0.06800
C970        C  0.37832878  0.71604469  0.44663060     0.14100
C971        C  0.40937888  0.73020635  0.45471091    -0.23600
H972        H  0.37383145  0.68267943  0.41542668     0.15300
H973        H  0.32522053  0.72191246  0.46047008     0.15400
C974        C  0.28955729  0.67493204  0.41985243    -0.23600
H975        H  0.42126102  0.73589376  0.42785839     0.05600
H976        H  0.41125563  0.71531574  0.47044600     0.08800
H977        H  0.41971221  0.74984186  0.47158454     0.08800
H978        H  0.27608018  0.65238136  0.42834293     0.08800
H979        H  0.28682796  0.67669432  0.38946022     0.08800
H980        H  0.28185100  0.68528665  0.43521189     0.05600
C981        C  0.31977535  0.69066213  0.57868089    -0.20200
C982        C  0.33195897  0.67683224  0.58457787    -0.06800
C983        C  0.35827022  0.68753849  0.56689206     0.14100
C984        C  0.37238481  0.71259003  0.54575712    -0.20300
C985        C  0.36079998  0.72701196  0.54132236    -0.06800
C986        C  0.33382947  0.71559747  0.55718125     0.14100
C987        C  0.31931649  0.72914478  0.55205287    -0.23600
H988        H  0.29960323  0.68253918  0.59199316     0.15300
H989        H  0.39290877  0.72132416  0.53314695     0.15400
C990        C  0.37141725  0.67248857  0.56944961    -0.23600
H991        H  0.31624250  0.73533441  0.57984290     0.05600
H992        H  0.29808467  0.71365401  0.53877454     0.08800
H993        H  0.33158224  0.74829634  0.53397110     0.08800
H994        H  0.35560728  0.65012749  0.56021190     0.08800
H995        H  0.37836769  0.67311381  0.59859526     0.08800
H996        H  0.39057072  0.68257489  0.55118094     0.05600
C997        C  0.42892345  0.51007221  0.59085931    -0.20200
C998        C  0.41366084  0.48110635  0.59877254    -0.06800
C999        C  0.38974064  0.46084692  0.57654651     0.14100
C1000       C  0.38069183  0.47023142  0.54825490    -0.20300
C1001       C  0.39470420  0.49931327  0.54243319    -0.06800
C1002       C  0.41960293  0.51948218  0.56335992     0.14100
C1003       C  0.43602717  0.55109718  0.55890811    -0.23600
H1004       H  0.44731109  0.52557927  0.60796478     0.15300
H1005       H  0.36137486  0.45486426  0.53257516     0.15400
C1006       C  0.37263759  0.42953916  0.58435058    -0.23600
H1007       H  0.43589819  0.56032483  0.58588317     0.05600
H1008       H  0.42705268  0.55681573  0.53701712     0.08800
H1009       H  0.45850993  0.56095285  0.55118015     0.08800
H1010       H  0.37525631  0.43209763  0.26629852     0.08800
H1011       H  0.38630145  0.42281158  0.58057619     0.08800
H1012       H  0.35408784  0.41671146  0.56505168     0.05600
C1013       C  0.42804035  0.50787546  0.41254668    -0.20200
C1014       C  0.41106127  0.47942765  0.40109311    -0.06800
C1015       C  0.38483836  0.45927842  0.41943790     0.14100
C1016       C  0.37557406  0.46840173  0.44772862    -0.20300
C1017       C  0.39194229  0.49717310  0.45774710    -0.06800
C1018       C  0.41872249  0.51703224  0.44045558     0.14100
C1019       C  0.43698545  0.54809235  0.45028562    -0.23600
H1020       H  0.44806857  0.52325257  0.39814110     0.15300
H1021       H  0.35477682  0.45334605  0.46057174     0.15400
C1022       C  0.36598385  0.42858596  0.40769676    -0.23600
H1023       H  0.45694070  0.56074513  0.43340789     0.05600
H1024       H  0.44313302  0.55086283  0.48022833     0.08800
H1025       H  0.42507808  0.55665308  0.44504400     0.08800
H1026       H  0.37751102  0.41950152  0.41177031     0.08800
H1027       H  0.36010911  0.42683745  0.37764760     0.08800
H1028       H  0.34596113  0.41577371  0.42444002     0.05600
C1029       C  0.45737725  0.86538829  0.58646569    -0.20200
C1030       C  0.44142096  0.87465249  0.59665257    -0.06800
C1031       C  0.41565936  0.86379474  0.57752342     0.14100
C1032       C  0.40560195  0.84272331  0.55012177    -0.20300
C1033       C  0.42058509  0.83212138  0.54177506    -0.06800
C1034       C  0.44719829  0.84416550  0.55920192     0.14100
C1035       C  0.46419035  0.83372655  0.55016201    -0.23600
H1036       H  0.47697045  0.87357823  0.60147721     0.15300
H1037       H  0.38505731  0.83316304  0.53702347     0.15400
C1038       C  0.39773084  0.87293404  0.58795342    -0.23600
H1039       H  0.48456391  0.84549317  0.56615362     0.05600
H1040       H  0.46940503  0.83665632  0.51977589     0.08800
H1041       H  0.45161287  0.81086062  0.55730034     0.08800
H1042       H  0.41019477  0.89614005  0.58345961     0.08800
H1043       H  0.38980477  0.87276870  0.28297845     0.08800
H1044       H  0.37798467  0.86198330  0.57072185     0.05600
C1045       C  0.44519996  0.84694108  0.44412240    -0.20200
C1046       C  0.41712123  0.83114566  0.45760782    -0.06800
C1047       C  0.39887482  0.83733807  0.44464823     0.14100
C1048       C  0.40894178  0.85858933  0.41751033    -0.20300
C1049       C  0.43649556  0.87327779  0.40247417    -0.06800
C1050       C  0.45509860  0.86786544  0.41652804     0.14100
C1051       C  0.48509211  0.88300567  0.40198080    -0.23600
H1052       H  0.45898746  0.84187327  0.45367533     0.15300
H1053       H  0.39456814  0.86244504  0.40625898     0.15400
C1054       C  0.36823319  0.82093106  0.45727952    -0.23600
H1055       H  0.50045680  0.89374045  0.42562307     0.05600
H1056       H  0.49114561  0.89938120  0.38063242     0.08800
H1057       H  0.48887216  0.86875826  0.72672759     0.08800
H1058       H  0.36496162  0.83575863  0.46993636     0.08800
H1059       H  0.36196614  0.80435171  0.47838391     0.08800
H1060       H  0.35379730  0.81036595  0.43271364     0.05600
C1061       C  0.44957527  0.92935480  0.00123256     0.03200
C1062       C  0.45228494  0.91637653  0.70000432    -0.12900
C1063       C  0.44370135  0.88868863  0.69968593     0.00700
C1064       C  0.44164172  0.87589651  0.66580317    -0.11500
C1065       C  0.43888154  0.88761152  0.96814123     0.03200
C1066       C  0.44777238  0.91554060  0.96762002    -0.10900
H1067       H  0.45184088  0.92463194  0.72667855     0.08800
H1068       H  0.43377647  0.85398558  0.66560661     0.06300
H1069       H  0.45310672  0.92588688  0.94069884     0.06200
C1070       C  0.44503303  0.45811116  0.99911271     0.03200
C1071       C  0.43823084  0.46452052  0.70179510    -0.12900
C1072       C  0.42488770  0.47750082  0.70182104     0.00700
C1073       C  0.42610336  0.49168330  0.99921513    -0.11500
C1074       C  0.42865505  0.48179863  0.96527401     0.03200
C1075       C  0.43758946  0.46474435  0.96521940    -0.10900
H1076       H  0.44574182  0.46272814  0.72838416     0.08800
H1077       H  0.41810984  0.50391600  0.99939814     0.06300
H1078       H  0.43820489  0.45669378  0.93852142     0.06200
C1079       C  0.40418583  0.80508191  0.85344071     0.02400
C1080       C  0.40552165  0.80585599  0.81386224     0.02300
C1081       C  0.39339081  0.78062364  0.79372342    -0.18200
C1082       C  0.37867797  0.75443079  0.81211584     0.02400
C1083       C  0.37582339  0.75339245  0.85142780     0.02300
C1084       C  0.38914940  0.77871630  0.87177179    -0.18200
H1085       H  0.38730149  0.77783549  0.90214127     0.04400
H1086       H  0.39444147  0.78125773  0.76327301     0.04400
O1087       O  0.29133581  0.63570209  0.94850655    -0.85300
O1088       O  0.23931925  0.58551816  0.96967766    -0.82300
C1089       C  0.23551910  0.56649399  0.94853703     0.98200
O1090       O  0.25137512  0.55914861  0.95218438    -0.82400
O1091       O  0.29923458  0.56343973  0.97032136    -0.85000
C1092       C  0.31974636  0.58174968  0.94932442     1.02700
O1093       O  0.33127897  0.60780412  0.95289239    -0.77800
O1094       O  0.33453229  0.65491916  0.96917330    -0.77900
C1095       C  0.31812202  0.65414167  0.94557013     1.02700
O1096       O  0.30294639  0.65104618  0.69274874    -0.85300
O1097       O  0.25256473  0.59856342  0.71202111    -0.82300
C1098       C  0.23477109  0.57193690  0.71566355     0.98200
O1099       O  0.23614991  0.55604732  0.69400527    -0.82400
O1100       O  0.28475469  0.56252367  0.71492931    -0.85000
C1101       C  0.31108979  0.57473876  0.71932952     1.02700
O1102       O  0.32938717  0.59477936  0.69791306    -0.77800
O1103       O  0.33055844  0.64087921  0.71322108    -0.77900
C1104       C  0.32198874  0.65572642  0.71512201     1.02600
Cr1105     Cr  0.27361055  0.61707321  0.99755258     1.93700
Cr1106     Cr  0.27132312  0.56420668  0.00033692     1.93200
Cr1107     Cr  0.32930398  0.62410290  0.00015063     1.39100
O1108       O  0.29140280  0.60166546  0.99926064    -1.23000
C1109       C  0.38538735  0.51489234  0.81319684     0.02400
C1110       C  0.38546679  0.51506436  0.85279732     0.02300
C1111       C  0.37242915  0.52495659  0.87197098    -0.18200
C1112       C  0.35901480  0.53435815  0.85256054     0.02400
C1113       C  0.35785499  0.53312652  0.81294083     0.02300
C1114       C  0.37135350  0.52369571  0.79381626    -0.18200
H1115       H  0.37157845  0.52385022  0.76336660     0.04400
H1116       H  0.37322796  0.52587254  0.90242311     0.04400
C1117       C  0.13523126  0.51180777  0.85266047     0.02400
C1118       C  0.13542487  0.51364558  0.81317095     0.02300
C1119       C  0.10968813  0.50188712  0.79408289    -0.18200
C1120       C  0.08367624  0.48793321  0.81337846     0.02400
C1121       C  0.08320063  0.48513989  0.85275902     0.02300
C1122       C  0.10905326  0.49707627  0.87189914    -0.18200
H1123       H  0.10890352  0.49559834  0.90224802     0.04400
H1124       H  0.10992848  0.50382133  0.76378604     0.04400
C1125       C  0.95693404  0.43923256  0.99918229     0.03200
C1126       C  0.97367601  0.44668053  0.69890287    -0.12900
C1127       C  0.00018226  0.45183758  0.69873653     0.00700
C1128       C  0.01354418  0.45718589  0.99877948    -0.11500
C1129       C  0.99861604  0.44990021  0.96504443     0.03200
C1130       C  0.97018999  0.44016146  0.96533675    -0.10900
H1131       H  0.96684899  0.44980394  0.72507605     0.08800
H1132       H  0.03547142  0.46456184  0.99862155     0.06300
H1133       H  0.95893279  0.43339350  0.93894842     0.06200
C1134       C  0.92700461  0.43057850  0.99930342     0.03200
C1135       C  0.91366256  0.42797398  0.70071457    -0.12900
C1136       C  0.88720261  0.42303144  0.70121870     0.00700
C1137       C  0.87151326  0.41549465  0.99924191    -0.11500
C1138       C  0.88622455  0.42196354  0.96549763     0.03200
C1139       C  0.91404553  0.43021161  0.96557852    -0.10900
H1140       H  0.92214611  0.42767711  0.72730744     0.08800
H1141       H  0.85009327  0.40948707  0.99911815     0.06300
H1142       H  0.92519179  0.43658572  0.93911663     0.06200
C1143       C  0.45496103  0.43993658  0.99903080     0.03200
C1144       C  0.46356233  0.43441417  0.96528869    -0.12900
C1145       C  0.47215887  0.41708913  0.96518926     0.00700
C1146       C  0.47363782  0.40611956  0.99887819    -0.11500
C1147       C  0.47115289  0.41536511  0.70077567     0.03200
C1148       C  0.45849316  0.42897425  0.70107869    -0.10900
H1149       H  0.46425696  0.44362718  0.93887087     0.08800
H1150       H  0.48124490  0.39356347  0.99889690     0.06300
H1151       H  0.45065108  0.43030386  0.72762553     0.06200
C1152       C  0.80397754  0.39265779  0.81353810     0.02400
C1153       C  0.80412621  0.39344781  0.85314068     0.02300
C1154       C  0.77832234  0.38118082  0.87243295    -0.18200
C1155       C  0.75251072  0.36837814  0.85310552     0.02400
C1156       C  0.75240819  0.36792289  0.81354708     0.02300
C1157       C  0.77816056  0.38024787  0.79419473    -0.18200
H1158       H  0.77802257  0.37971110  0.76372531     0.04400
H1159       H  0.77823232  0.38108171  0.90290831     0.04400
C1160       C  0.50439970  0.37301149  0.81398834     0.02400
C1161       C  0.50957952  0.37817011  0.85292358     0.02300
C1162       C  0.52281033  0.36838862  0.87211955    -0.18200
C1163       C  0.53222071  0.35487528  0.85315455    -0.00400
C1164       C  0.52738655  0.35006714  0.81418773     0.02300
C1165       C  0.51380133  0.35940492  0.79505826    -0.18200
H1166       H  0.51118749  0.35671421  0.76489446     0.04400
H1167       H  0.52568048  0.37122274  0.90223748     0.04400
O1168       O  0.58559631  0.23486176  0.97145603    -0.85300
O1169       O  0.63420285  0.28751071  0.95142409    -0.82300
C1170       C  0.65277178  0.31404518  0.94878885     0.98200
O1171       O  0.65188542  0.33021131  0.97080776    -0.82400
O1172       O  0.60298315  0.32402823  0.95281944    -0.85000
C1173       C  0.57659453  0.31121448  0.94776977     1.02700
O1174       O  0.55827797  0.29034667  0.96820131    -0.77800
O1175       O  0.55812230  0.24508684  0.95095183    -0.77900
C1176       C  0.56729638  0.23082694  0.94836025     1.02700
O1177       O  0.59995041  0.25218019  0.71432831    -0.85300
O1178       O  0.65111504  0.30195136  0.69308489    -0.82300
C1179       C  0.65467114  0.32011575  0.71585111     0.98200
O1180       O  0.63901009  0.32777938  0.71361869    -0.82400
O1181       O  0.59188196  0.32524843  0.69668621    -0.85000
C1182       C  0.57222963  0.30732106  0.71891556     1.02700
O1183       O  0.56043956  0.28121945  0.71538956    -0.77800
O1184       O  0.55585940  0.23339974  0.69809187    -0.77900
C1185       C  0.57341055  0.23347746  0.71864384     1.02600
Cr1186     Cr  0.61549470  0.26956199  0.99987467     1.93700
Cr1187     Cr  0.61919195  0.32304375  0.00093801     1.93200
Cr1188     Cr  0.56028188  0.26356760  0.99896261     1.39100
O1189       O  0.59819387  0.28542100  0.00009146    -1.23000
C1190       C  0.53017935  0.13544299  0.81247444     0.02400
C1191       C  0.52674834  0.13512860  0.85173646     0.02300
C1192       C  0.51349817  0.10961045  0.87157500    -0.18200
C1193       C  0.50318511  0.08408242  0.85325778     0.02400
C1194       C  0.50735886  0.08454879  0.81408446     0.02300
C1195       C  0.52013648  0.11004465  0.79413484    -0.18200
H1196       H  0.52212535  0.11000852  0.76392269     0.04400
H1197       H  0.51183371  0.10981024  0.90183594     0.04400
C1198       C  0.45852942  0.95925189  0.00093369     0.03200
C1199       C  0.47904039  0.97825694  0.70166506    -0.12900
C1200       C  0.48690419  0.00572741  0.70238971     0.00700
C1201       C  0.47467832  0.01482872  0.00118555    -0.11500
C1202       C  0.46929890  0.00087066  0.96708247     0.03200
C1203       C  0.46049986  0.97295547  0.96699445    -0.10900
H1204       H  0.47875308  0.96930151  0.72815689     0.08800
H1205       H  0.48114730  0.03625660  0.00145028     0.06300
H1206       H  0.45510582  0.96243309  0.94023039     0.06200
C1207       C  0.45799345  0.02659941  0.92648438    -0.20200
C1208       C  0.47395023  0.01664270  0.93196724    -0.06800
C1209       C  0.49729263  0.02626780  0.90796988     0.14100
C1210       C  0.50506730  0.04681660  0.88049727    -0.20300
C1211       C  0.49027194  0.05818597  0.87667604    -0.06800
C1212       C  0.46589772  0.04735495  0.89935177     0.14100
C1213       C  0.44864884  0.05820746  0.89617465    -0.23600
H1214       H  0.44021221  0.01925727  0.94511732     0.15300
H1215       H  0.52400392  0.05546612  0.86368976     0.15400
C1216       C  0.51524959  0.01641356  0.91294636    -0.23600
H1217       H  0.42965228  0.04632817  0.91487884     0.05600
H1218       H  0.44093039  0.05586785  0.86707238     0.08800
H1219       H  0.46166323  0.08086020  0.90430049     0.08800
H1220       H  0.50194325  0.99316127  0.90831850     0.08800
H1221       H  0.52432030  0.02147220  0.94174453     0.08800
H1222       H  0.53328497  0.02686023  0.89267588     0.05600
C1223       C  0.46820376  0.02143774  0.74829439    -0.20200
C1224       C  0.49041386  0.02047176  0.73776185    -0.06800
C1225       C  0.51705555  0.03809593  0.75610541     0.14100
C1226       C  0.52128240  0.05731060  0.78347857    -0.20300
C1227       C  0.49951748  0.05939367  0.79253525    -0.06800
C1228       C  0.47253000  0.04092022  0.77513217     0.14100
C1229       C  0.44878838  0.04277273  0.78323997    -0.23600
H1230       H  0.44794271  0.00815686  0.73355068     0.15300
H1231       H  0.54217908  0.07198162  0.79624679     0.15400
C1232       C  0.54139233  0.03772832  0.74518927    -0.23600
H1233       H  0.42954068  0.02764351  0.76587597     0.05600
H1234       H  0.45593806  0.06453652  0.77730812     0.08800
H1235       H  0.44254534  0.03741775  0.81305488     0.08800
H1236       H  0.54673583  0.04347395  0.71509878     0.08800
H1237       H  0.53512590  0.01615590  0.74980294     0.08800
H1238       H  0.56089194  0.05303233  0.76203173     0.05600
C1239       C  0.57592974  0.20362640  0.90675106    -0.20200
C1240       C  0.55676325  0.20850416  0.91939414    -0.06800
C1241       C  0.52787201  0.18991557  0.90765703     0.14100
C1242       C  0.51886259  0.16654521  0.88473700    -0.20300
C1243       C  0.53796152  0.16134101  0.87327213    -0.06800
C1244       C  0.56687127  0.18014736  0.88444709     0.14100
C1245       C  0.58848122  0.17542850  0.87498199    -0.23600
H1246       H  0.59809013  0.21766892  0.91564824     0.15300
H1247       H  0.49663332  0.15181756  0.87639236     0.15400
C1248       C  0.50615521  0.19364722  0.92063362    -0.23600
H1249       H  0.59804611  0.17458074  0.90125591     0.05600
H1250       H  0.60571929  0.19328550  0.85741687     0.08800
H1251       H  0.57901225  0.15526192  0.85985989     0.08800
H1252       H  0.51218197  0.21425230  0.91042309     0.08800
H1253       H  0.50506022  0.19301118  0.95177422     0.08800
H1254       H  0.48445231  0.17662335  0.90970923     0.05600
C1255       C  0.57800379  0.19857561  0.74698136    -0.20200
C1256       C  0.56300767  0.20983981  0.74515919    -0.06800
C1257       C  0.53796955  0.19733803  0.76689674     0.14100
C1258       C  0.52818051  0.17342782  0.78897932    -0.20300
C1259       C  0.54267616  0.16162779  0.78989359    -0.06800
C1260       C  0.56802486  0.17444346  0.76862577     0.14100
C1261       C  0.58467523  0.16289225  0.76828771    -0.23600
H1262       H  0.59717155  0.20813422  0.73021188     0.15300
H1263       H  0.50866114  0.16343500  0.80504592     0.15400
C1264       C  0.52182662  0.20939534  0.76764865    -0.23600
H1265       H  0.60444518  0.17632468  0.75114291     0.05600
H1266       H  0.57164181  0.14127529  0.75608541     0.08800
H1267       H  0.59113854  0.16217676  0.79712402     0.08800
H1268       H  0.51254290  0.20733372  0.73962954     0.08800
H1269       H  0.53646468  0.23212391  0.77585919     0.08800
H1270       H  0.50394073  0.19807792  0.78815768     0.05600
C1271       C  0.56808973  0.35322074  0.78826916    -0.20200
C1272       C  0.53844997  0.33746052  0.79233405    -0.06800
C1273       C  0.52011473  0.31049056  0.77520723     0.14100
C1274       C  0.53189985  0.30048619  0.75312080    -0.20300
C1275       C  0.56151119  0.31702932  0.74712450    -0.06800
C1276       C  0.57988755  0.34337806  0.76597574     0.14100
C1277       C  0.61192758  0.36082507  0.76379119    -0.23600
H1278       H  0.58205861  0.37365664  0.80203120     0.15300
H1279       H  0.51779786  0.28018440  0.73906513     0.15400
C1280       C  0.48814138  0.29233874  0.77971522    -0.23600
H1281       H  0.62282629  0.37963593  0.78254476     0.05600
H1282       H  0.61951622  0.36874771  0.73482136     0.08800
H1283       H  0.61825945  0.34753874  0.77272122     0.08800
H1284       H  0.48008607  0.30308958  0.76677868     0.08800
H1285       H  0.48227915  0.28849606  0.80985971     0.08800
H1286       H  0.47719245  0.27139336  0.76580214     0.05600
C1287       C  0.53067085  0.31496051  0.87749787    -0.20200
C1288       C  0.54540692  0.34433673  0.87501080    -0.06800
C1289       C  0.57192787  0.36287301  0.89362107     0.14100
C1290       C  0.58234476  0.35142948  0.91565954    -0.20300
C1291       C  0.56677807  0.32193922  0.91976675    -0.06800
C1292       C  0.54106036  0.30348125  0.89931884     0.14100
C1293       C  0.52470363  0.27171799  0.89961758    -0.23600
H1294       H  0.51050672  0.30085092  0.86293675     0.15300
H1295       H  0.60219645  0.36560926  0.93097911     0.15400
C1296       C  0.58928356  0.39465191  0.89034213    -0.23600
H1297       H  0.50654376  0.26095894  0.87951303     0.05600
H1298       H  0.51567554  0.26293333  0.92786427     0.08800
H1299       H  0.53912642  0.26654274  0.89138709     0.08800
H1300       H  0.57745561  0.40172731  0.90278013     0.08800
H1301       H  0.59383440  0.40106737  0.86038487     0.08800
H1302       H  0.61003748  0.40585605  0.90532528     0.05600
C1303       C  0.69131410  0.35514644  0.91064081    -0.20200
C1304       C  0.67676411  0.32663923  0.92150192    -0.06800
C1305       C  0.68702855  0.31184818  0.90849512     0.14100
C1306       C  0.71161779  0.32613143  0.88596650    -0.20300
C1307       C  0.72585449  0.35441347  0.87514057    -0.06800
C1308       C  0.71569967  0.36920170  0.88771903     0.14100
C1309       C  0.73048962  0.39997162  0.87836314    -0.23600
H1310       H  0.68387251  0.36678503  0.92052748     0.15300
H1311       H  0.72034360  0.31538826  0.87764112     0.15400
C1312       C  0.67318257  0.28146590  0.91924574    -0.23600
H1313       H  0.73739550  0.41252004  0.90470311     0.05600
H1314       H  0.71541261  0.40200641  0.86324636     0.08800
H1315       H  0.74964129  0.40933102  0.86044722     0.08800
H1316       H  0.65102462  0.26733017  0.90813896     0.08800
H1317       H  0.67298224  0.27948222  0.95026167     0.08800
H1318       H  0.68484804  0.27393882  0.90747537     0.05600
C1319       C  0.68638120  0.31572070  0.75506726    -0.20200
C1320       C  0.67802365  0.33237180  0.74409214    -0.06800
C1321       C  0.69387208  0.36063860  0.75753222     0.14100
C1322       C  0.71724577  0.37118940  0.78163242    -0.20300
C1323       C  0.72577894  0.35464193  0.79158817    -0.06800
C1324       C  0.71038691  0.32669334  0.77782978     0.14100
C1325       C  0.71991362  0.30879394  0.78575055    -0.23600
H1326       H  0.67458803  0.29416297  0.74470827     0.15300
H1327       H  0.72971082  0.39290869  0.79159261     0.15400
C1328       C  0.68754225  0.38039930  0.74500706    -0.23600
H1329       H  0.70558780  0.28754532  0.77239232     0.05600
H1330       H  0.71991345  0.30556425  0.81630826     0.08800
H1331       H  0.74182393  0.31949630  0.77463438     0.08800
H1332       H  0.66603339  0.37230681  0.75473488     0.08800
H1333       H  0.68863004  0.38216375  0.71392005     0.08800
H1334       H  0.70309088  0.40207652  0.75673426     0.05600
C1335       C  0.50791963  0.41320147  0.78592068    -0.20200
C1336       C  0.49183240  0.38379328  0.79125586    -0.06800
C1337       C  0.46619939  0.36518351  0.77075874     0.14100
C1338       C  0.45864521  0.37629014  0.74309098    -0.20300
C1339       C  0.47599137  0.40549738  0.73573648    -0.06800
C1340       C  0.50031820  0.42427908  0.75822502     0.14100
C1341       C  0.51912918  0.45584163  0.75146714    -0.23600
H1342       H  0.52747224  0.42740838  0.80180734     0.15300
H1343       H  0.43990609  0.36204356  0.72581442     0.15400
C1344       C  0.44705897  0.33360142  0.77749224    -0.23600
H1345       H  0.53747978  0.46747025  0.77124618     0.05600
H1346       H  0.50650334  0.46376156  0.75530922     0.08800
H1347       H  0.52455707  0.45496945  0.04965008     0.08800
H1348       H  0.44056824  0.32907059  0.80742774     0.08800
H1349       H  0.45833043  0.32475362  0.77022496     0.08800
H1350       H  0.42736217  0.32243695  0.76011805     0.05600
C1351       C  0.47118871  0.37884312  0.87955396    -0.20200
C1352       C  0.50053116  0.39253456  0.87512516    -0.06800
C1353       C  0.52038739  0.41716624  0.89655515     0.14100
C1354       C  0.51035350  0.42591512  0.92403064    -0.20300
C1355       C  0.48101969  0.41096812  0.93033114    -0.06800
C1356       C  0.46115202  0.38769594  0.90699303     0.14100
C1357       C  0.42929355  0.37080462  0.91165220    -0.23600
H1358       H  0.45590880  0.35998266  0.86322580     0.15300
H1359       H  0.52556975  0.44382773  0.94185495     0.15400
C1360       C  0.55228125  0.43429945  0.89182647    -0.23600
H1361       H  0.41982990  0.37114293  0.88493064     0.05600
H1362       H  0.42338569  0.37923423  0.93403964     0.08800
H1363       H  0.42428531  0.35121029  0.59221446     0.08800
H1364       H  0.56167265  0.45675011  0.88583603     0.08800
H1365       H  0.55826620  0.42673396  0.86831072     0.08800
H1366       H  0.56181417  0.43344203  0.91813984     0.05600
C1367       C  0.83635529  0.38509806  0.78306654    -0.20200
C1368       C  0.82996413  0.40368352  0.79117099    -0.06800
C1369       C  0.84543700  0.43034663  0.77300443     0.14100
C1370       C  0.86612030  0.43724044  0.74611804    -0.20300
C1371       C  0.87137789  0.41797634  0.73646435    -0.06800
C1372       C  0.85687699  0.39190324  0.75591472     0.14100
C1373       C  0.86150779  0.37040121  0.74623140    -0.23600
H1374       H  0.82389519  0.36436469  0.79629033     0.15300
H1375       H  0.87699157  0.45710797  0.73085440     0.15400
C1376       C  0.83961071  0.45132504  0.77982583    -0.23600
H1377       H  0.84776478  0.35079599  0.76338947     0.05600
H1378       H  0.88411268  0.37949599  0.75155587     0.08800
H1379       H  0.85635889  0.36437569  0.71620236     0.08800
H1380       H  0.82252981  0.44378928  0.80082474     0.08800
H1381       H  0.83290562  0.45535381  0.75315364     0.08800
H1382       H  0.85939581  0.47162639  0.79009024     0.05600
C1383       C  0.83998014  0.38891107  0.87918123    -0.20200
C1384       C  0.83020222  0.40510899  0.87566216    -0.06800
C1385       C  0.84242950  0.42954693  0.89815254     0.14100
C1386       C  0.86294083  0.43620585  0.92518049    -0.20300
C1387       C  0.87129276  0.41889923  0.93035594    -0.06800
C1388       C  0.86052720  0.39559932  0.90618810     0.14100
C1389       C  0.86920186  0.37666003  0.91051593    -0.23600
H1390       H  0.83010246  0.36985061  0.86254090     0.15300
H1391       H  0.87125425  0.45400827  0.94394058     0.15400
C1392       C  0.83313105  0.44801324  0.89468197    -0.23600
H1393       H  0.85810520  0.35894951  0.88995025     0.05600
H1394       H  0.86382595  0.36735902  0.93916080     0.08800
H1395       H  0.89256327  0.38916956  0.90583449     0.08800
H1396       H  0.81008720  0.43566411  0.90149577     0.08800
H1397       H  0.83693848  0.45632082  0.86564587     0.08800
H1398       H  0.84522873  0.46645087  0.91407487     0.05600
C1399       C  0.04451563  0.48560108  0.87851975    -0.20200
C1400       C  0.05665114  0.47152812  0.87523908    -0.06800
C1401       C  0.04590022  0.44727842  0.89768206     0.14100
C1402       C  0.02480375  0.43900142  0.92459792    -0.20300
C1403       C  0.01419397  0.45433582  0.92978271    -0.06800
C1404       C  0.02341228  0.47730827  0.90557527     0.14100
C1405       C  0.01244336  0.49426058  0.90990387    -0.23600
H1406       H  0.05291503  0.50429434  0.86152921     0.15300
H1407       H  0.01773962  0.42138439  0.94319227     0.15400
C1408       C  0.05683148  0.43019747  0.89490321    -0.23600
H1409       H  0.02254700  0.51204334  0.88945013     0.05600
H1410       H  0.01713095  0.50335760  0.93860511     0.08800
H1411       H  0.98900215  0.48034799  0.90507456     0.08800
H1412       H  0.06591554  0.43048156  0.92233847     0.08800
H1413       H  0.07363010  0.43831306  0.87330213     0.08800
H1414       H  0.03886123  0.40789771  0.88760532     0.05600
C1415       C  0.02156505  0.44056794  0.74740785    -0.20200
C1416       C  0.01737193  0.45978021  0.73337443    -0.06800
C1417       C  0.03243944  0.48708091  0.74966949     0.14100
C1418       C  0.05225883  0.49479915  0.77836936    -0.20300
C1419       C  0.05765083  0.47613452  0.79076675    -0.06800
C1420       C  0.04165299  0.44844436  0.77569462     0.14100
C1421       C  0.04629684  0.42722775  0.78730004    -0.23600
H1422       H  0.01008365  0.41967948  0.73481771     0.15300
H1423       H  0.06491521  0.51620363  0.78956266     0.15400
C1424       C  0.02957761  0.50920243  0.73609282    -0.23600
H1425       H  0.05267810  0.42105290  0.76247174     0.05600
H1426       H  0.02611899  0.40802233  0.79895902     0.08800
H1427       H  0.06319325  0.43559123  0.80879042     0.08800
H1428       H  0.00630339  0.50058531  0.05571668     0.08800
H1429       H  0.04109568  0.52924650  0.07221087     0.08800
H1430       H  0.02190791  0.51525792  0.75948231     0.05600
C1431       C  0.31037057  0.54434785  0.90643477    -0.20200
C1432       C  0.33025878  0.57170435  0.92137933    -0.06800
C1433       C  0.35959130  0.58700529  0.91249266     0.14100
C1434       C  0.36809896  0.57447189  0.88904892    -0.20300
C1435       C  0.34816664  0.54704838  0.87457566    -0.06800
C1436       C  0.31898280  0.53172973  0.88356630     0.14100
C1437       C  0.29695536  0.50180623  0.87015179    -0.23600
H1438       H  0.28791587  0.53245974  0.91338620     0.15300
H1439       H  0.39055685  0.58585085  0.88255562     0.15400
C1440       C  0.38222895  0.61571312  0.92921159    -0.23600
H1441       H  0.27552184  0.49223364  0.88226430     0.05600
H1442       H  0.30322950  0.48832017  0.87829561     0.08800
H1443       H  0.29501324  0.50187879  0.83935495     0.08800
H1444       H  0.38109776  0.61433913  0.96033035     0.08800
H1445       H  0.37909435  0.63129249  0.91952911     0.08800
H1446       H  0.40407276  0.62377863  0.92068674     0.05600
C1447       C  0.30845585  0.53508827  0.74672608    -0.20200
C1448       C  0.32090267  0.56406849  0.74723801    -0.06800
C1449       C  0.34468269  0.58263503  0.77078129     0.14100
C1450       C  0.35581922  0.57180775  0.79253074    -0.20300
C1451       C  0.34415045  0.54303124  0.79082790    -0.06800
C1452       C  0.32022643  0.52442897  0.76742439     0.14100
C1453       C  0.30751151  0.49354144  0.76312725    -0.23600
H1454       H  0.29053033  0.52104256  0.72814962     0.15300
H1455       H  0.37438052  0.58608359  0.81006356     0.15400
C1456       C  0.35827647  0.61381387  0.77324368    -0.23600
H1457       H  0.28768851  0.48181550  0.74597344     0.05600
H1458       H  0.30212905  0.48292078  0.79082224     0.08800
H1459       H  0.32289942  0.49168589  0.74876995     0.08800
H1460       H  0.34190732  0.61648706  0.78115156     0.08800
H1461       H  0.36793828  0.62438866  0.74590348     0.08800
H1462       H  0.37552877  0.62478454  0.79466189     0.05600
C1463       C  0.17748447  0.51590334  0.87614717    -0.20200
C1464       C  0.16205925  0.52669637  0.87482988    -0.06800
C1465       C  0.17174239  0.55116093  0.89566640     0.14100
C1466       C  0.19627798  0.56396803  0.91787756    -0.20300
C1467       C  0.21135405  0.55271110  0.92091496    -0.06800
C1468       C  0.20187199  0.52838138  0.89917457     0.14100
C1469       C  0.21666267  0.51493647  0.90050494    -0.23600
H1470       H  0.16989480  0.49713843  0.85985946     0.15300
H1471       H  0.20324580  0.58269847  0.93376550     0.15400
C1472       C  0.15606332  0.56376283  0.89481581    -0.23600
H1473       H  0.20624582  0.49618844  0.88170952     0.05600
H1474       H  0.21591056  0.50761911  0.92948609     0.08800
H1475       H  0.23921418  0.53047484  0.89127059     0.08800
H1476       H  0.13428623  0.54848884  0.90668101     0.08800
H1477       H  0.15433647  0.56892532  0.86554301     0.08800
H1478       H  0.16722042  0.58357356  0.91159095     0.05600
C1479       C  0.18171778  0.55808914  0.79206014    -0.20200
C1480       C  0.16212998  0.52840509  0.79091337    -0.06800
C1481       C  0.16730341  0.51323537  0.76693640     0.14100
C1482       C  0.19151044  0.52817384  0.74383863    -0.20300
C1483       C  0.21090709  0.55812397  0.74363527    -0.06800
C1484       C  0.20610601  0.57319339  0.76896181     0.14100
C1485       C  0.22622558  0.60500454  0.77207125    -0.23600
H1486       H  0.17753445  0.56955689  0.81054797     0.15300
H1487       H  0.19488017  0.51609104  0.72526533     0.15400
C1488       C  0.14734856  0.48121684  0.76571043    -0.23600
H1489       H  0.21930869  0.61292775  0.79390214     0.05600
H1490       H  0.22707009  0.61467755  0.74494881     0.08800
H1491       H  0.24777529  0.61193008  0.78004959     0.08800
H1492       H  0.12588832  0.47344085  0.75581599     0.08800
H1493       H  0.14543608  0.47259011  0.79415810     0.08800
H1494       H  0.15519091  0.47274701  0.74635074     0.05600
C1495       C  0.36368986  0.69298819  0.75408564    -0.20200
C1496       C  0.33552594  0.67999477  0.74194118    -0.06800
C1497       C  0.32159659  0.69138152  0.75437026     0.14100
C1498       C  0.33603524  0.71501027  0.77831147    -0.20300
C1499       C  0.36427322  0.72826242  0.78931204    -0.06800
C1500       C  0.37836599  0.71721072  0.77708657     0.14100
C1501       C  0.40894185  0.73067009  0.78729867    -0.23600
H1502       H  0.37475567  0.68478931  0.74461808     0.15300
H1503       H  0.32550354  0.72376492  0.78779507     0.15400
C1504       C  0.29154245  0.67900005  0.74283976    -0.23600
H1505       H  0.42196466  0.73735788  0.76133201     0.05600
H1506       H  0.40990707  0.71497888  0.80244635     0.08800
H1507       H  0.41871260  0.74960118  0.80549410     0.08800
H1508       H  0.27712618  0.65611377  0.74963342     0.08800
H1509       H  0.29072477  0.68214753  0.71231330     0.08800
H1510       H  0.28347963  0.68919019  0.75771022     0.05600
C1511       C  0.31793177  0.68966870  0.90926065    -0.20200
C1512       C  0.33087802  0.67675563  0.91672630    -0.06800
C1513       C  0.35736262  0.68768635  0.89942297     0.14100
C1514       C  0.37110243  0.71232677  0.87751487    -0.20300
C1515       C  0.35893476  0.72608082  0.87190243    -0.06800
C1516       C  0.33163778  0.71422099  0.88698022     0.14100
C1517       C  0.31657011  0.72707025  0.88042525    -0.23600
H1518       H  0.29754854  0.68127476  0.92211486     0.15300
H1519       H  0.39190070  0.72140678  0.86551574     0.15400
C1520       C  0.37110972  0.67329658  0.90329652    -0.23600
H1521       H  0.31299690  0.73342672  0.90770897     0.05600
H1522       H  0.29555921  0.71110442  0.86692285     0.08800
H1523       H  0.32871838  0.74600438  0.86192566     0.08800
H1524       H  0.35566513  0.65075537  0.89457586     0.08800
H1525       H  0.37800827  0.67453784  0.93266332     0.08800
H1526       H  0.39038419  0.68342747  0.88526933     0.05600
C1527       C  0.43632670  0.51766708  0.92062125    -0.20200
C1528       C  0.42061118  0.48891768  0.93040523    -0.06800
C1529       C  0.39494884  0.46846793  0.91111420     0.14100
C1530       C  0.38492234  0.47748054  0.88379743    -0.20300
C1531       C  0.39994950  0.50638973  0.87542081    -0.06800
C1532       C  0.42624977  0.52670124  0.89360012     0.14100
C1533       C  0.44351776  0.55815485  0.88657730    -0.23600
H1534       H  0.45584723  0.53336955  0.93574461     0.15300
H1535       H  0.36439164  0.46207163  0.87061182     0.15400
C1536       C  0.37717317  0.43740864  0.92101160    -0.23600
H1537       H  0.44562480  0.56903664  0.91312667     0.05600
H1538       H  0.43376149  0.56344619  0.86534533     0.08800
H1539       H  0.46517495  0.56662929  0.87653669     0.08800
H1540       H  0.36440659  0.42490999  0.61358293     0.08800
H1541       H  0.38950435  0.42937124  0.91543531     0.08800
H1542       H  0.35722432  0.42450795  0.90414526     0.05600
C1543       C  0.43355284  0.51587918  0.74204185    -0.20200
C1544       C  0.41923489  0.48673681  0.73679472    -0.06800
C1545       C  0.39615749  0.46705595  0.76058885     0.14100
C1546       C  0.38660783  0.47692163  0.78724133    -0.20300
C1547       C  0.39980608  0.50598678  0.79080979    -0.06800
C1548       C  0.42417199  0.52576697  0.76880968     0.14100
C1549       C  0.43979138  0.55727233  0.77264044    -0.23600
H1550       H  0.45119455  0.53087568  0.72361209     0.15300
H1551       H  0.36767197  0.46177300  0.80367815     0.15400
C1552       C  0.38054259  0.43560823  0.75632009    -0.23600
H1553       H  0.45860101  0.56961898  0.75366337     0.05600
H1554       H  0.44756311  0.56393911  0.80184105     0.08800
H1555       H  0.42545042  0.56274783  0.76552826     0.08800
H1556       H  0.39555585  0.43061520  0.76124346     0.08800
H1557       H  0.37152139  0.42877910  0.72758695     0.08800
H1558       H  0.36269340  0.42318271  0.77673283     0.05600
C1559       C  0.44999767  0.86246398  0.92592089    -0.20200
C1560       C  0.43349365  0.87159931  0.93312342    -0.06800
C1561       C  0.40924832  0.86131872  0.91060283     0.14100
C1562       C  0.40135821  0.84115351  0.88255890    -0.20300
C1563       C  0.41696077  0.83086129  0.87678912    -0.06800
C1564       C  0.44196553  0.84215344  0.89806429     0.14100
C1565       C  0.45955384  0.83197025  0.89230050    -0.23600
H1566       H  0.46840767  0.87019607  0.94348808     0.15300
H1567       H  0.38189942  0.83203551  0.86679559     0.15400
C1568       C  0.39050357  0.87001149  0.91786353    -0.23600
H1569       H  0.47857976  0.84320273  0.91097152     0.05600
H1570       H  0.46708286  0.83583781  0.86278088     0.08800
H1571       H  0.44649526  0.80890957  0.89844517     0.08800
H1572       H  0.40298839  0.89325819  0.91383567     0.08800
H1573       H  0.39132015  0.86789676  0.61791758     0.08800
H1574       H  0.37193073  0.85926398  0.89844662     0.05600
C1575       C  0.44545106  0.84811721  0.77975137    -0.20200
C1576       C  0.41698147  0.83180926  0.79191339    -0.06800
C1577       C  0.39841835  0.83692670  0.77671108     0.14100
C1578       C  0.40852758  0.85751313  0.74862445    -0.20300
C1579       C  0.43640068  0.87242750  0.73472874    -0.06800
C1580       C  0.45538770  0.86833856  0.75112196     0.14100
C1581       C  0.48582179  0.88410687  0.73793881    -0.23600
H1582       H  0.45948726  0.84383100  0.79100994     0.15300
H1583       H  0.39399806  0.86059563  0.73575003     0.15400
C1584       C  0.36735769  0.81980886  0.78770612    -0.23600
H1585       H  0.50059603  0.89565040  0.76193821     0.05600
H1586       H  0.49184749  0.89992259  0.71568685     0.08800
H1587       H  0.48294414  0.87057688  0.06649429     0.08800
H1588       H  0.36305094  0.83423952  0.79886020     0.08800
H1589       H  0.36098184  0.80359516  0.80946583     0.08800
H1590       H  0.35371298  0.80866743  0.76265068     0.05600
loop_ 
_geom_bond_atom_site_label_1 
_geom_bond_atom_site_label_2 
_geom_bond_distance 
_geom_bond_site_symmetry_2 
_ccdc_geom_bond_type 
C1            C6   1.421       .  A
C1          C532   1.419       .  A
C1          C138   1.513       .  S
C2            C3   1.400       .  A
C2         C1061   1.420       .  A
C2            H7   1.076       .  S
C3            C4   1.393       .  A
C3          C519   1.476       .  S
C4         C1065   1.395   1_554  A
C4            H8   1.085       .  S
C5            C6   1.404       .  A
C5          C534   1.394       .  A
C5          C500   1.481       .  S
C6            H9   1.079       .  S
C10          C15   1.419       .  A
C10         C541   1.421       .  A
C10          C83   1.511       .  S
C11          C12   1.402       .  A
C11        C1070   1.421   1_554  A
C11          H16   1.078       .  S
C12        C1073   1.392   1_554  A
C12         C484   1.478       .  S
C13          C14   1.394       .  A
C13         C542   1.394       .  A
C13          H17   1.085       .  S
C14          C15   1.400       .  A
C14         C468   1.478       .  S
C15          H18   1.079       .  S
C19          C20   1.407       .  A
C19          C24   1.403       .  A
C19         C503   1.481       .  S
C20          C21   1.402       .  A
C20         C516   1.476       .  S
C21          C22   1.401       .  A
C21          H26   1.086       .  S
C22          C23   1.411       .  A
C22         C439   1.484       .  S
C23          C24   1.403       .  A
C23         C455   1.479       .  S
C24          H25   1.086       .  S
O27         Cr45   1.991       .  S
O27          C35   1.265       .  A
O28         Cr45   1.992       .  S
O28          C29   1.263       .  A
C29         C407   1.492       .  S
C29          O30   1.261       .  A
O30         Cr46   1.989       .  S
O31         Cr46   2.003       .  S
O31          C32   1.265       .  A
C32         C372   1.500       .  S
C32          O33   1.260       .  A
O33         Cr47   1.988       .  S
O34         Cr47   1.990       .  S
O34          C35   1.261       .  A
C35         C452   1.493       .  S
O36       Cr1105   1.991   1_554  S
O36          C44   1.260       .  A
O37       Cr1105   1.981   1_554  S
O37          C38   1.261       .  A
C38         C423   1.494       .  S
C38          O39   1.267       .  A
O39       Cr1106   2.001       .  S
O40       Cr1106   1.993       .  S
O40          C41   1.263       .  A
C41         C388   1.485       .  S
C41          O42   1.260       .  A
O42       Cr1107   1.991       .  S
O43       Cr1107   1.995       .  S
O43          C44   1.264       .  A
C44         C436   1.495       .  S
Cr45        O566   1.996       .  S
Cr45        O567   1.993       .  S
Cr45         O48   1.771       .  S
Cr46        O569   2.005       .  S
Cr46        O570   1.982       .  S
Cr46         O48   1.773       .  S
Cr47        O572   1.998       .  S
Cr47        O573   1.988       .  S
Cr47         O48   1.772       .  S
C49          C50   1.411       .  A
C49          C54   1.405       .  A
C49         C487   1.483       .  S
C50          C51   1.406       .  A
C50         C471   1.485       .  S
C51          C52   1.403       .  A
C51          H56   1.085       .  S
C52          C53   1.415       .  A
C52         C375   1.488       .  S
C53          C54   1.405       .  A
C53         C391   1.487       .  S
C54          H55   1.085       .  S
C57          C58   1.409       .  A
C57          C62   1.402       .  A
C57         C404   1.479       .  S
C58          C59   1.401       .  A
C58         C420   1.481       .  S
C59          C60   1.402       .  A
C59          H64   1.085       .  S
C60          C61   1.409       .  A
C60         C359   1.476       .  S
C61          C62   1.402       .  A
C61         C340   1.480       .  S
C62          H63   1.085       .  S
C65          C70   1.421       .  A
C65         C596   1.418       .  A
C65          C74   1.512       .  S
C66          C67   1.401   1_655  A
C66        C1125   1.418   1_554  A
C66          H71   1.079       .  S
C67        C1128   1.395   1_554  A
C67         C356   1.479       .  S
C68          C69   1.395   1_455  A
C68         C597   1.392   1_455  A
C68          H72   1.085       .  S
C69          C70   1.404       .  A
C69         C343   1.484   1_655  S
C70          H73   1.076       .  S
C74          C79   1.417       .  A
C74         C605   1.421       .  A
C75          C76   1.404       .  A
C75        C1134   1.421   1_554  A
C75          H80   1.079       .  S
C76        C1137   1.394   1_554  A
C76         C311   1.482       .  S
C77          C78   1.394       .  A
C77         C606   1.395       .  A
C77          H81   1.086       .  S
C78          C79   1.400       .  A
C78         C327   1.477       .  S
C79          H82   1.077       .  S
C83          C84   1.420       .  A
C83         C618   1.420       .  A
C84          C85   1.401       .  A
C84          H89   1.079       .  S
C85          C86   1.394       .  A
C85         C295   1.478       .  S
C86         C617   1.395       .  A
C86          H90   1.084       .  S
C87          C88   1.402       .  A
C87        C1146   1.394   1_554  A
C87         C279   1.479       .  S
C88        C1143   1.421   1_554  A
C88          H91   1.078       .  S
C92          C93   1.410       .  A
C92          C97   1.400       .  A
C92         C308   1.479       .  S
C93          C94   1.405       .  A
C93         C324   1.476       .  S
C94          C95   1.401       .  A
C94          H99   1.086       .  S
C95          C96   1.407       .  A
C95         C247   1.482       .  S
C96          C97   1.399       .  A
C96         C263   1.474       .  S
C97          H98   1.086       .  S
C100        C101   1.409       .  A
C100        C105   1.406       .  A
C100        C276   1.484       .  S
C101        C102   1.404       .  A
C101        C292   1.482       .  S
C102        C103   1.405       .  A
C102        H107   1.084       .  S
C103        C104   1.416       .  A
C103        C228   1.489       .  S
C104        C105   1.406       .  A
C104        C212   1.491       .  S
C105        H106   1.083       .  S
O108       Cr126   1.994       .  S
O108        C116   1.262       .  A
O109       Cr126   1.975       .  S
O109        C110   1.260       .  A
C110        C244   1.495       .  S
C110        O111   1.269       .  A
O111       Cr127   2.011       .  S
O112       Cr127   1.990       .  S
O112        C113   1.263       .  A
C113        C231   1.489       .  S
C113        O114   1.264       .  A
O114       Cr128   2.003       .  S
O115       Cr128   1.992       .  S
O115        C116   1.261       .  A
C116        C180   1.488       .  S
O117      Cr1186   1.976   1_554  S
O117        C125   1.262       .  A
O118      Cr1186   1.985   1_554  S
O118        C119   1.261       .  A
C119        C260   1.490       .  S
C119        O120   1.262       .  A
O120      Cr1187   1.997       .  S
O121      Cr1187   2.007       .  S
O121        C122   1.266       .  A
C122        C215   1.489       .  S
C122        O123   1.263       .  A
O123      Cr1188   1.987   1_554  S
O124      Cr1188   2.010   1_554  S
O124        C125   1.268       .  A
C125        C196   1.483       .  S
Cr126       O647   1.970       .  S
Cr126       O648   1.996       .  S
Cr126       O129   1.771       .  S
Cr127       O650   2.004       .  S
Cr127       O651   2.002       .  S
Cr127       O129   1.775       .  S
Cr128       O653   1.981       .  S
Cr128       O654   2.010       .  S
Cr128       O129   1.780       .  S
C130        C131   1.409       .  A
C130        C135   1.402       .  A
C130        C199   1.486       .  S
C131        C132   1.399       .  A
C131        C183   1.477       .  S
C132        C133   1.403       .  A
C132        H137   1.083       .  S
C133        C134   1.415       .  A
C133        C151   1.488       .  S
C134        C135   1.406       .  A
C134        C167   1.482       .  S
C135        H136   1.084       .  S
C138        C143   1.419       .  A
C138        C669   1.420       .  A
C139        C140   1.399   1_565  A
C139       C1198   1.420       .  A
C139        H144   1.076       .  S
C140       C1201   1.392       .  A
C140        C164   1.476       .  S
C141        C142   1.396       .  A
C141        C670   1.394       .  A
C141        H145   1.086       .  S
C142        C143   1.403   1_545  A
C142        C148   1.483       .  S
C143        H146   1.078       .  S
C147        C148   1.402       .  A
C147        C152   1.404       .  A
C147        H154   1.084       .  S
C148        C149   1.413       .  A
C149        C150   1.405       .  A
C149        C156   1.507       .  S
C150        C151   1.404       .  A
C150        H155   1.084       .  S
C151        C152   1.419       .  A
C152        C153   1.511       .  S
C153        H157   1.111       .  S
C153        H158   1.107       .  S
C153        H159   1.107       .  S
C156        H160   1.109   1_545  S
C156        H161   1.110       .  S
C156        H162   1.111       .  S
C163        C164   1.401       .  A
C163        C168   1.404       .  A
C163        H170   1.084       .  S
C164        C165   1.409       .  A
C165        C166   1.403       .  A
C165        C172   1.506       .  S
C166        C167   1.404       .  A
C166        H171   1.084       .  S
C167        C168   1.412       .  A
C168        C169   1.503       .  S
C169        H173   1.111       .  S
C169        H174   1.110       .  S
C169        H175   1.107       .  S
C172        H176   1.110       .  S
C172        H177   1.111       .  S
C172        H178   1.111       .  S
C179        C180   1.407       .  A
C179        C184   1.398       .  A
C179        H186   1.084       .  S
C180        C181   1.418       .  A
C181        C182   1.407       .  A
C181        C188   1.505       .  S
C182        C183   1.402       .  A
C182        H187   1.084       .  S
C183        C184   1.409       .  A
C184        C185   1.508       .  S
C185        H189   1.110       .  S
C185        H190   1.110       .  S
C185        H191   1.107       .  S
C188        H192   1.106       .  S
C188        H193   1.110       .  S
C188        H194   1.111       .  S
C195        C196   1.405       .  A
C195        C200   1.404       .  A
C195        H202   1.084       .  S
C196        C197   1.417       .  A
C197        C198   1.405       .  A
C197        C204   1.508       .  S
C198        C199   1.402       .  A
C198        H203   1.084       .  S
C199        C200   1.414       .  A
C200        C201   1.508       .  S
C201        H205   1.111       .  S
C201        H206   1.109       .  S
C201        H207   1.106       .  S
C204        H208   1.109       .  S
C204        H209   1.110       .  S
C204        H210   1.111       .  S
C211        C212   1.400       .  A
C211        C216   1.403       .  A
C211        H218   1.083       .  S
C212        C213   1.416       .  A
C213        C214   1.409       .  A
C213        C220   1.506       .  S
C214        C215   1.405       .  A
C214        H219   1.084       .  S
C215        C216   1.415       .  A
C216        C217   1.501       .  S
C217        H221   1.111       .  S
C217        H222   1.109       .  S
C217        H223   1.109       .  S
C220        H224   1.107       .  S
C220        H225   1.110       .  S
C220        H226   1.111       .  S
C227        C228   1.400       .  A
C227        C232   1.404       .  A
C227        H234   1.084       .  S
C228        C229   1.416       .  A
C229        C230   1.408       .  A
C229        C236   1.508       .  S
C230        C231   1.405       .  A
C230        H235   1.084       .  S
C231        C232   1.418       .  A
C232        C233   1.505       .  S
C233        H237   1.111       .  S
C233        H238   1.109       .  S
C233        H239   1.109       .  S
C236        H240   1.108       .  S
C236        H241   1.109       .  S
C236        H242   1.111       .  S
C243        C244   1.410       .  A
C243        C248   1.401       .  A
C243        H250   1.084       .  S
C244        C245   1.423       .  A
C245        C246   1.405       .  A
C245        C252   1.509       .  S
C246        C247   1.401       .  A
C246        H251   1.082       .  S
C247        C248   1.410       .  A
C248        C249   1.508       .  S
C249        H253   1.111       .  S
C249        H254   1.110       .  S
C249        H255   1.108       .  S
C252        H256   1.110       .  S
C252        H257   1.110       .  S
C252        H258   1.111       .  S
C259        C260   1.410       .  A
C259        C264   1.395       .  A
C259        H266   1.084       .  S
C260        C261   1.420       .  A
C261        C262   1.406       .  A
C261        C268   1.502       .  S
C262        C263   1.401       .  A
C262        H267   1.085       .  S
C263        C264   1.406       .  A
C264        C265   1.510       .  S
C265        H269   1.111       .  S
C265        H270   1.108       .  S
C265        H271   1.109       .  S
C268        H272   1.102       .  S
C268        H273   1.110       .  S
C268        H274   1.111       .  S
C275        C276   1.402       .  A
C275        C280   1.404       .  A
C275        H282   1.084       .  S
C276        C277   1.414       .  A
C277        C278   1.405       .  A
C277        C284   1.506       .  S
C278        C279   1.402       .  A
C278        H283   1.084       .  S
C279        C280   1.412       .  A
C280        C281   1.507       .  S
C281        H285   1.111       .  S
C281        H286   1.110       .  S
C281       H1347   1.111       .  S
C284        H288   1.109       .  S
C284        H289   1.107       .  S
C284        H290   1.111       .  S
H287        C811   1.110       .  S
C291        C292   1.403       .  A
C291        C296   1.405       .  A
C291        H298   1.084       .  S
C292        C293   1.414       .  A
C293        C294   1.402       .  A
C293        C300   1.507       .  S
C294        C295   1.402       .  A
C294        H299   1.085       .  S
C295        C296   1.414       .  A
C296        C297   1.507       .  S
C297        H301   1.110       .  S
C297        H302   1.108       .  S
C297        H833   1.110       .  S
C300        H304   1.110       .  S
C300        H305   1.108       .  S
C300        H306   1.110       .  S
H303       C1357   1.111       .  S
C307        C308   1.404       .  A
C307        C312   1.407       .  A
C307        H314   1.084       .  S
C308        C309   1.413       .  A
C309        C310   1.400       .  A
C309        C316   1.508       .  S
C310        C311   1.403       .  A
C310        H315   1.085       .  S
C311        C312   1.413       .  A
C312        C313   1.506       .  S
C313        H317   1.111       .  S
C313        H318   1.109       .  S
C313        H319   1.111       .  S
C316        H320   1.108       .  S
C316        H321   1.110       .  S
C316        H322   1.110       .  S
C323        C324   1.402       .  A
C323        C328   1.404       .  A
C323        H330   1.084       .  S
C324        C325   1.411       .  A
C325        C326   1.400       .  A
C325        C332   1.506       .  S
C326        C327   1.402       .  A
C326        H331   1.085       .  S
C327        C328   1.412       .  A
C328        C329   1.506       .  S
C329        H333   1.111       .  S
C329        H334   1.110       .  S
C329        H335   1.109       .  S
C332        H336   1.110       .  S
C332        H337   1.107       .  S
C332        H338   1.111       .  S
C339        C340   1.403       .  A
C339        C344   1.406       .  A
C339        H346   1.084       .  S
C340        C341   1.413       .  A
C341        C342   1.400       .  A
C341        C348   1.507       .  S
C342        C343   1.404       .  A
C342        H347   1.085       .  S
C343        C344   1.414       .  A
C344        C345   1.507       .  S
C345        H349   1.111       .  S
C345        H350   1.110       .  S
C345        H351   1.108   1_455  S
C348        H352   1.111       .  S
C348        H353   1.107       .  S
C348        H354   1.110       .  S
C355        C356   1.403       .  A
C355        C360   1.398       .  A
C355        H362   1.085       .  S
C356        C357   1.416       .  A
C357        C358   1.404       .  A
C357        C364   1.507       .  S
C358        C359   1.402       .  A
C358        H363   1.085       .  S
C359        C360   1.412       .  A
C360        C361   1.508       .  S
C361        H365   1.111       .  S
C361        H366   1.110       .  S
C361        H367   1.107       .  S
C364        H370   1.110       .  S
C364       H1428   1.106       .  S
C364       H1429   1.110       .  S
H368        C894   1.107       .  S
H369        C894   1.111       .  S
C371        C372   1.410       .  A
C371        C376   1.402       .  A
C371        H378   1.083       .  S
C372        C373   1.423       .  A
C373        C374   1.409       .  A
C373        C380   1.508       .  S
C374        C375   1.402       .  A
C374        H379   1.083       .  S
C375        C376   1.410       .  A
C376        C377   1.507       .  S
C377        H381   1.111       .  S
C377        H382   1.109       .  S
C377        H383   1.104       .  S
C380        H384   1.110       .  S
C380        H385   1.110       .  S
C380        H386   1.111       .  S
C387        C388   1.404       .  A
C387        C392   1.407       .  A
C387        H394   1.084       .  S
C388        C389   1.418       .  A
C389        C390   1.403       .  A
C389        C396   1.509       .  S
C390        C391   1.400       .  A
C390        H395   1.082       .  S
C391        C392   1.415       .  A
C392        C393   1.507       .  S
C393        H397   1.111       .  S
C393        H398   1.104       .  S
C393        H399   1.109       .  S
C396        H400   1.110       .  S
C396        H401   1.109       .  S
C396        H402   1.111       .  S
C403        C404   1.402       .  A
C403        C408   1.409       .  A
C403        H410   1.084       .  S
C404        C405   1.407       .  A
C405        C406   1.397       .  A
C405        C412   1.510       .  S
C406        C407   1.409       .  A
C406        H411   1.083       .  S
C407        C408   1.421       .  A
C408        C409   1.507       .  S
C409        H413   1.111       .  S
C409        H414   1.111       .  S
C409        H415   1.110       .  S
C412        H416   1.109       .  S
C412        H417   1.109       .  S
C412        H418   1.110       .  S
C419        C420   1.400       .  A
C419        C424   1.405       .  A
C419        H426   1.082       .  S
C420        C421   1.408       .  A
C421        C422   1.400       .  A
C421        C428   1.508       .  S
C422        C423   1.410       .  A
C422        H427   1.083       .  S
C423        C424   1.422       .  A
C424        C425   1.507       .  S
C425        H429   1.111       .  S
C425        H430   1.109       .  S
C425        H431   1.110       .  S
C428        H432   1.109       .  S
C428        H433   1.110       .  S
C428        H434   1.111       .  S
C435        C436   1.408       .  A
C435        C440   1.406       .  A
C435        H442   1.084       .  S
C436        C437   1.426       .  A
C437        C438   1.401       .  A
C437        C444   1.509       .  S
C438        C439   1.397       .  A
C438        H443   1.084       .  S
C439        C440   1.414       .  A
C440        C441   1.506       .  S
C441        H445   1.110       .  S
C441        H446   1.111       .  S
C441        H447   1.107       .  S
C444        H448   1.108       .  S
C444        H449   1.110       .  S
C444        H450   1.111       .  S
C451        C452   1.408       .  A
C451        C456   1.403       .  A
C451        H458   1.085       .  S
C452        C453   1.426       .  A
C453        C454   1.400       .  A
C453        C460   1.510       .  S
C454        C455   1.396       .  A
C454        H459   1.085       .  S
C455        C456   1.413       .  A
C456        C457   1.507       .  S
C457        H461   1.111       .  S
C457        H462   1.110       .  S
C457        H463   1.107       .  S
C460        H464   1.110       .  S
C460        H465   1.110       .  S
C460        H466   1.111       .  S
C467        C468   1.400       .  A
C467        C472   1.400       .  A
C467        H474   1.085       .  S
C468        C469   1.412       .  A
C469        C470   1.405       .  A
C469        C476   1.507       .  S
C470        C471   1.405       .  A
C470        H475   1.083       .  S
C471        C472   1.416       .  A
C472        C473   1.507       .  S
C473        H477   1.110       .  S
C473        H478   1.108       .  S
C473        H479   1.111       .  S
C476        H481   1.110       .  S
C476        H482   1.111       .  S
C476       H1010   1.110       .  S
H480       C1536   1.110       .  S
C483        C484   1.402       .  A
C483        C488   1.406       .  A
C483        H490   1.084       .  S
C484        C485   1.412       .  A
C485        C486   1.403       .  A
C485        C492   1.507       .  S
C486        C487   1.402       .  A
C486        H491   1.085       .  S
C487        C488   1.413       .  A
C488        C489   1.505       .  S
C489        H493   1.111       .  S
C489        H494   1.108       .  S
C489        H495   1.110       .  S
C492        H496   1.110       .  S
C492        H497   1.111       .  S
C492        H498   1.110       .  S
C499        C500   1.403       .  A
C499        C504   1.403       .  A
C499        H506   1.084       .  S
C500        C501   1.415       .  A
C501        C502   1.405       .  A
C501        C508   1.507       .  S
C502        C503   1.401       .  A
C502        H507   1.083       .  S
C503        C504   1.412       .  A
C504        C505   1.507       .  S
C505        H509   1.111       .  S
C505        H510   1.110       .  S
C505        H511   1.110       .  S
C508        H512   1.110       .  S
C508        H514   1.111       .  S
C508       H1043   1.111       .  S
H513       C1568   1.111       .  S
C515        C516   1.400       .  A
C515        C520   1.402       .  A
C515        H522   1.084       .  S
C516        C517   1.414       .  A
C517        C518   1.401       .  A
C517        C524   1.508       .  S
C518        C519   1.401       .  A
C518        H523   1.084       .  S
C519        C520   1.414       .  A
C520        C521   1.506       .  S
C521        H525   1.111       .  S
C521        H526   1.109       .  S
C521       H1587   1.110       .  S
C524        H528   1.110       .  S
C524        H529   1.109       .  S
C524        H530   1.110       .  S
H527       C1051   1.111       .  S
C531       C1062   1.416       .  A
C531        C536   1.422       .  A
C531        C668   1.511       .  S
C532        C533   1.402       .  A
C532        H537   1.080       .  S
C533        C534   1.393       .  A
C533       C1049   1.476       .  S
C534        H538   1.085       .  S
C535       C1064   1.394       .  A
C535        C536   1.404       .  A
C535       C1030   1.480       .  S
C536        H539   1.080       .  S
C540       C1071   1.422       .  A
C540        C545   1.419       .  A
C540        C613   1.512       .  S
C541        C542   1.403       .  A
C541        H546   1.077       .  S
C542       C1014   1.479       .  S
C543       C1072   1.394       .  A
C543        C544   1.394       .  A
C543        H547   1.085       .  S
C544        C545   1.400       .  A
C544        C998   1.480       .  S
C545        H548   1.078       .  S
C549        C550   1.410       .  A
C549        C554   1.404       .  A
C549       C1033   1.480       .  S
C550        C551   1.403       .  A
C550       C1046   1.477       .  S
C551        C552   1.400       .  A
C551        H556   1.086       .  S
C552        C553   1.408       .  A
C552        C969   1.478       .  S
C553        C554   1.402       .  A
C553        C985   1.479       .  S
C554        H555   1.086       .  S
O557       Cr575   1.990       .  S
O557        C565   1.264       .  A
O558       Cr575   2.010       .  S
O558        C559   1.268       .  A
C559        C937   1.501       .  S
C559        O560   1.261       .  A
O560       Cr576   1.986       .  S
O561       Cr576   1.989       .  S
O561        C562   1.262       .  A
C562        C902   1.483       .  S
C562        O563   1.262       .  A
O563       Cr577   1.986       .  S
O564       Cr577   1.992       .  S
O564        C565   1.262       .  A
C565        C982   1.481       .  S
O566        C574   1.261       .  A
O567        C568   1.265       .  A
C568        C953   1.501       .  S
C568        O569   1.268       .  A
O570        C571   1.261       .  A
C571        C918   1.477       .  S
C571        O572   1.264       .  A
O573        C574   1.262       .  A
C574        C966   1.489       .  S
Cr575      O1096   2.003       .  S
Cr575      O1097   1.994       .  S
Cr575       O578   1.774       .  S
Cr576      O1099   1.990       .  S
Cr576      O1100   1.984       .  S
Cr576       O578   1.774       .  S
Cr577      O1102   1.995       .  S
Cr577      O1103   1.987       .  S
Cr577       O578   1.775       .  S
C579        C580   1.409       .  A
C579        C584   1.403       .  A
C579       C1017   1.481       .  S
C580        C581   1.403       .  A
C580       C1001   1.480       .  S
C581        C582   1.401       .  A
C581        H586   1.086       .  S
C582        C583   1.415       .  A
C582        C905   1.481       .  S
C583        C584   1.404       .  A
C583        C921   1.490       .  S
C584        H585   1.084       .  S
C587        C588   1.412       .  A
C587        C592   1.408       .  A
C587        C934   1.489       .  S
C588        C589   1.403       .  A
C588        C950   1.486       .  S
C589        C590   1.404       .  A
C589        H594   1.084       .  S
C590        C591   1.412       .  A
C590        C889   1.481       .  S
C591        C592   1.408       .  A
C591        C870   1.489       .  S
C592        H593   1.084       .  S
C595       C1126   1.418       .  A
C595        C600   1.423       .  A
C595        C604   1.516       .  S
C596        C597   1.402       .  A
C596        H601   1.078       .  S
C597        C886   1.477   1_655  S
C598       C1127   1.395       .  A
C598        C599   1.397   1_455  A
C598        H602   1.085       .  S
C599        C600   1.408       .  A
C599        C873   1.490   1_655  S
C600        H603   1.078       .  S
C604       C1135   1.423       .  A
C604        C609   1.419       .  A
C605        C606   1.405       .  A
C605        H610   1.077       .  S
C606        C841   1.484       .  S
C607       C1136   1.394       .  A
C607        C608   1.393       .  A
C607        H611   1.086       .  S
C608        C609   1.404       .  A
C608        C857   1.480       .  S
C609        H612   1.079       .  S
C613        C614   1.421       .  A
C613       C1148   1.418       .  A
C614        C615   1.403       .  A
C614        H619   1.079       .  S
C615        C616   1.394       .  A
C615        C825   1.480       .  S
C616       C1147   1.395       .  A
C616        H620   1.084       .  S
C617        C618   1.402       .  A
C617        C809   1.478       .  S
C618        H621   1.077       .  S
C622        C623   1.411       .  A
C622        C627   1.406       .  A
C622        C838   1.483       .  S
C623        C624   1.404       .  A
C623        C854   1.483       .  S
C624        C625   1.405       .  A
C624        H629   1.086       .  S
C625        C626   1.411       .  A
C625        C777   1.483       .  S
C626        C627   1.402       .  A
C626        C793   1.486       .  S
C627        H628   1.086       .  S
C630        C631   1.411       .  A
C630        C635   1.406       .  A
C630        C806   1.482       .  S
C631        C632   1.404       .  A
C631        C822   1.485       .  S
C632        C633   1.404       .  A
C632        H637   1.083       .  S
C633        C634   1.413       .  A
C633        C758   1.487       .  S
C634        C635   1.402       .  A
C634        C742   1.486       .  S
C635        H636   1.084       .  S
O638       Cr656   1.990       .  S
O638        C646   1.262       .  A
O639       Cr656   1.972       .  S
O639        C640   1.258       .  A
C640        C774   1.491       .  S
C640        O641   1.267       .  A
O641       Cr657   2.007       .  S
O642       Cr657   1.981       .  S
O642        C643   1.262       .  A
C643        C761   1.484       .  S
C643        O644   1.266       .  A
O644       Cr658   2.009       .  S
O645       Cr658   1.989       .  S
O645        C646   1.260       .  A
C646        C710   1.483       .  S
O647        C655   1.260       .  A
O648        C649   1.262       .  A
C649        C790   1.502       .  S
C649        O650   1.264       .  A
O651        C652   1.266       .  A
C652        C745   1.483       .  S
C652        O653   1.261       .  A
O654        C655   1.267       .  A
C655        C726   1.475       .  S
Cr656      O1177   1.969       .  S
Cr656      O1178   1.998       .  S
Cr656       O659   1.768       .  S
Cr657      O1180   1.991       .  S
Cr657      O1181   2.000       .  S
Cr657       O659   1.770       .  S
Cr658      O1183   1.984       .  S
Cr658      O1184   2.014       .  S
Cr658       O659   1.775       .  S
C660        C661   1.410       .  A
C660        C665   1.402       .  A
C660        C729   1.483       .  S
C661        C662   1.399       .  A
C661        C713   1.482       .  S
C662        C663   1.406       .  A
C662        H667   1.084       .  S
C663        C664   1.414       .  A
C663        C681   1.481       .  S
C664        C665   1.403       .  A
C664        C697   1.486       .  S
C665        H666   1.083       .  S
C668       C1199   1.423       .  A
C668        C673   1.418       .  A
C669        C670   1.402   1_565  A
C669        H674   1.080       .  S
C670        C694   1.479       .  S
C671       C1200   1.390       .  A
C671        C672   1.393       .  A
C671        H675   1.086       .  S
C672        C673   1.401   1_545  A
C672        C678   1.476       .  S
C673        H676   1.079       .  S
C677        C678   1.401       .  A
C677        C682   1.399       .  A
C677        H684   1.085       .  S
C678        C679   1.411       .  A
C679        C680   1.405       .  A
C679        C686   1.506       .  S
C680        C681   1.405       .  A
C680        H685   1.084       .  S
C681        C682   1.416       .  A
C682        C683   1.511       .  S
C683        H687   1.111       .  S
C683        H688   1.108       .  S
C683        H689   1.107       .  S
C686        H690   1.110   1_545  S
C686        H691   1.110       .  S
C686        H692   1.111       .  S
C693        C694   1.402       .  A
C693        C698   1.405       .  A
C693        H700   1.084       .  S
C694        C695   1.410       .  A
C695        C696   1.405       .  A
C695        C702   1.506       .  S
C696        C697   1.405       .  A
C696        H701   1.085       .  S
C697        C698   1.412       .  A
C698        C699   1.503       .  S
C699        H703   1.111       .  S
C699        H704   1.110       .  S
C699        H705   1.106       .  S
C702        H706   1.110       .  S
C702        H707   1.110       .  S
C702        H708   1.111       .  S
C709        C710   1.405       .  A
C709        C714   1.398       .  A
C709        H716   1.084       .  S
C710        C711   1.416       .  A
C711        C712   1.408       .  A
C711        C718   1.506       .  S
C712        C713   1.404       .  A
C712        H717   1.084       .  S
C713        C714   1.411       .  A
C714        C715   1.506       .  S
C715        H719   1.110       .  S
C715        H720   1.111       .  S
C715        H721   1.106       .  S
C718        H722   1.109       .  S
C718        H723   1.110       .  S
C718        H724   1.111       .  S
C725        C726   1.402       .  A
C725        C730   1.399       .  A
C725        H732   1.084       .  S
C726        C727   1.414       .  A
C727        C728   1.405       .  A
C727        C734   1.507       .  S
C728        C729   1.404       .  A
C728        H733   1.084       .  S
C729        C730   1.415       .  A
C730        C731   1.510       .  S
C731        H735   1.111       .  S
C731        H736   1.108       .  S
C731        H737   1.105       .  S
C734        H738   1.109       .  S
C734        H739   1.111       .  S
C734        H740   1.111       .  S
C741        C742   1.399       .  A
C741        C746   1.400       .  A
C741        H748   1.083       .  S
C742        C743   1.414       .  A
C743        C744   1.406       .  A
C743        C750   1.505       .  S
C744        C745   1.404       .  A
C744        H749   1.084       .  S
C745        C746   1.414       .  A
C746        C747   1.502       .  S
C747        H751   1.111       .  S
C747        H752   1.109       .  S
C747        H753   1.110       .  S
C750        H754   1.106       .  S
C750        H755   1.110       .  S
C750        H756   1.111       .  S
C757        C758   1.403       .  A
C757        C762   1.406       .  A
C757        H764   1.084       .  S
C758        C759   1.414       .  A
C759        C760   1.404       .  A
C759        C766   1.509       .  S
C760        C761   1.404       .  A
C760        H765   1.084       .  S
C761        C762   1.417       .  A
C762        C763   1.507       .  S
C763        H767   1.111       .  S
C763        H768   1.109       .  S
C763        H769   1.110       .  S
C766        H770   1.108       .  S
C766        H771   1.109       .  S
C766        H772   1.111       .  S
C773        C774   1.408       .  A
C773        C778   1.398       .  A
C773        H780   1.083       .  S
C774        C775   1.422       .  A
C775        C776   1.405       .  A
C775        C782   1.510       .  S
C776        C777   1.402       .  A
C776        H781   1.080       .  S
C777        C778   1.411       .  A
C778        C779   1.508       .  S
C779        H783   1.111       .  S
C779        H784   1.110       .  S
C779        H785   1.107       .  S
C782        H786   1.110       .  S
C782        H787   1.110       .  S
C782        H788   1.111       .  S
C789        C790   1.411       .  A
C789        C794   1.403       .  A
C789        H796   1.084       .  S
C790        C791   1.422       .  A
C791        C792   1.410       .  A
C791        C798   1.502       .  S
C792        C793   1.401       .  A
C792        H797   1.085       .  S
C793        C794   1.409       .  A
C794        C795   1.509       .  S
C795        H799   1.110       .  S
C795        H800   1.108       .  S
C795        H801   1.110       .  S
C798        H802   1.101       .  S
C798        H803   1.110       .  S
C798        H804   1.111       .  S
C805        C806   1.404       .  A
C805        C810   1.407       .  A
C805        H812   1.084       .  S
C806        C807   1.413       .  A
C807        C808   1.401       .  A
C807        C814   1.507       .  S
C808        C809   1.401       .  A
C808        H813   1.084       .  S
C809        C810   1.411       .  A
C810        C811   1.505       .  S
C811        H815   1.111       .  S
C811        H816   1.110       .  S
C814        H818   1.109       .  S
C814        H819   1.106       .  S
C814        H820   1.111       .  S
H817       C1341   1.110       .  S
C821        C822   1.402       .  A
C821        C826   1.403       .  A
C821        H828   1.083       .  S
C822        C823   1.416       .  A
C823        C824   1.404       .  A
C823        C830   1.507       .  S
C824        C825   1.402       .  A
C824        H829   1.085       .  S
C825        C826   1.415       .  A
C826        C827   1.507       .  S
C827        H831   1.110       .  S
C827        H832   1.108       .  S
C827       H1363   1.110       .  S
C830        H834   1.111       .  S
C830        H835   1.109       .  S
C830        H836   1.110       .  S
C837        C838   1.403       .  A
C837        C842   1.405       .  A
C837        H844   1.082       .  S
C838        C839   1.414       .  A
C839        C840   1.403       .  A
C839        C846   1.507       .  S
C840        C841   1.404       .  A
C840        H845   1.085       .  S
C841        C842   1.413       .  A
C842        C843   1.507       .  S
C843        H847   1.111       .  S
C843        H848   1.110       .  S
C843        H849   1.110       .  S
C846        H850   1.109       .  S
C846        H851   1.110       .  S
C846        H852   1.110       .  S
C853        C854   1.402       .  A
C853        C858   1.404       .  A
C853        H860   1.083       .  S
C854        C855   1.413       .  A
C855        C856   1.405       .  A
C855        C862   1.505       .  S
C856        C857   1.403       .  A
C856        H861   1.084       .  S
C857        C858   1.413       .  A
C858        C859   1.507       .  S
C859        H863   1.111       .  S
C859        H864   1.111       .  S
C859        H865   1.110       .  S
C862        H866   1.110       .  S
C862        H867   1.108       .  S
C862        H868   1.111       .  S
C869        C870   1.403       .  A
C869        C874   1.406       .  A
C869        H876   1.082       .  S
C870        C871   1.415       .  A
C871        C872   1.407       .  A
C871        C878   1.507       .  S
C872        C873   1.406       .  A
C872        H877   1.084       .  S
C873        C874   1.415       .  A
C874        C875   1.507       .  S
C875        H879   1.110       .  S
C875        H880   1.110       .  S
C875        H881   1.109   1_455  S
C878        H882   1.110       .  S
C878        H883   1.108       .  S
C878        H884   1.110       .  S
C885        C886   1.404       .  A
C885        C890   1.405       .  A
C885        H892   1.084       .  S
C886        C887   1.414       .  A
C887        C888   1.400       .  A
C887        C894   1.509       .  S
C888        C889   1.401       .  A
C888        H893   1.084       .  S
C889        C890   1.414       .  A
C890        C891   1.506       .  S
C891        H895   1.111       .  S
C891        H896   1.110       .  S
C891        H897   1.108       .  S
C894        H900   1.110       .  S
H898       C1424   1.107       .  S
H899       C1424   1.110       .  S
C901        C902   1.407       .  A
C901        C906   1.401       .  A
C901        H908   1.084       .  S
C902        C903   1.416       .  A
C903        C904   1.404       .  A
C903        C910   1.506       .  S
C904        C905   1.403       .  A
C904        H909   1.084       .  S
C905        C906   1.408       .  A
C906        C907   1.504       .  S
C907        H911   1.111       .  S
C907        H912   1.111       .  S
C907        H913   1.105       .  S
C910        H914   1.111       .  S
C910        H915   1.108       .  S
C910        H916   1.111       .  S
C917        C918   1.402       .  A
C917        C922   1.404       .  A
C917        H924   1.084       .  S
C918        C919   1.413       .  A
C919        C920   1.404       .  A
C919        C926   1.508       .  S
C920        C921   1.405       .  A
C920        H925   1.082       .  S
C921        C922   1.418       .  A
C922        C923   1.510       .  S
C923        H927   1.111       .  S
C923        H928   1.107       .  S
C923        H929   1.108       .  S
C926        H930   1.111       .  S
C926        H931   1.109       .  S
C926        H932   1.111       .  S
C933        C934   1.402       .  A
C933        C938   1.410       .  A
C933        H940   1.083       .  S
C934        C935   1.410       .  A
C935        C936   1.403       .  A
C935        C942   1.509       .  S
C936        C937   1.410       .  A
C936        H941   1.083       .  S
C937        C938   1.424       .  A
C938        C939   1.508       .  S
C939        H943   1.111       .  S
C939        H944   1.110       .  S
C939        H945   1.110       .  S
C942        H946   1.109       .  S
C942        H947   1.109       .  S
C942        H948   1.111       .  S
C949        C950   1.401       .  A
C949        C954   1.407       .  A
C949        H956   1.083       .  S
C950        C951   1.409       .  A
C951        C952   1.403       .  A
C951        C958   1.508       .  S
C952        C953   1.411       .  A
C952        H957   1.083       .  S
C953        C954   1.422       .  A
C954        C955   1.503       .  S
C955        H959   1.111       .  S
C955        H960   1.110       .  S
C955        H961   1.109       .  S
C958        H962   1.109       .  S
C958        H963   1.110       .  S
C958        H964   1.111       .  S
C965        C966   1.407       .  A
C965        C970   1.405       .  A
C965        H972   1.084       .  S
C966        C967   1.422       .  A
C967        C968   1.401       .  A
C967        C974   1.506       .  S
C968        C969   1.396       .  A
C968        H973   1.084       .  S
C969        C970   1.413       .  A
C970        C971   1.507       .  S
C971        H975   1.110       .  S
C971        H976   1.111       .  S
C971        H977   1.109       .  S
C974        H978   1.104       .  S
C974        H979   1.109       .  S
C974        H980   1.111       .  S
C981        C982   1.404       .  A
C981        C986   1.403       .  A
C981        H988   1.085       .  S
C982        C983   1.418       .  A
C983        C984   1.401       .  A
C983        C990   1.508       .  S
C984        C985   1.398       .  A
C984        H989   1.083       .  S
C985        C986   1.414       .  A
C986        C987   1.507       .  S
C987        H991   1.110       .  S
C987        H992   1.110       .  S
C987        H993   1.108       .  S
C990        H994   1.110       .  S
C990        H995   1.109       .  S
C990        H996   1.111       .  S
C997        C998   1.401       .  A
C997       C1002   1.398       .  A
C997       H1004   1.085       .  S
C998        C999   1.412       .  A
C999       C1000   1.407       .  A
C999       C1006   1.506       .  S
C1000      C1001   1.404       .  A
C1000      H1005   1.084       .  S
C1001      C1002   1.415       .  A
C1002      C1003   1.508       .  S
C1003      H1007   1.110       .  S
C1003      H1008   1.108       .  S
C1003      H1009   1.111       .  S
C1006      H1540   1.111       .  S
C1006      H1011   1.109       .  S
C1006      H1012   1.111       .  S
C1013      C1014   1.401       .  A
C1013      C1018   1.401       .  A
C1013      H1020   1.085       .  S
C1014      C1015   1.412       .  A
C1015      C1016   1.407       .  A
C1015      C1022   1.505       .  S
C1016      C1017   1.404       .  A
C1016      H1021   1.084       .  S
C1017      C1018   1.412       .  A
C1018      C1019   1.505       .  S
C1019      H1023   1.111       .  S
C1019      H1024   1.106       .  S
C1019      H1025   1.110       .  S
C1022      H1026   1.110       .  S
C1022      H1027   1.110       .  S
C1022      H1028   1.111       .  S
C1029      C1030   1.403       .  A
C1029      C1034   1.405       .  A
C1029      H1036   1.084       .  S
C1030      C1031   1.413       .  A
C1031      C1032   1.404       .  A
C1031      C1038   1.507       .  S
C1032      C1033   1.401       .  A
C1032      H1037   1.082       .  S
C1033      C1034   1.412       .  A
C1034      C1035   1.507       .  S
C1035      H1039   1.111       .  S
C1035      H1040   1.110       .  S
C1035      H1041   1.110       .  S
C1038      H1042   1.110       .  S
C1038      H1573   1.111       .  S
C1038      H1044   1.111       .  S
C1045      C1046   1.400       .  A
C1045      C1050   1.402       .  A
C1045      H1052   1.084       .  S
C1046      C1047   1.415       .  A
C1047      C1048   1.402       .  A
C1047      C1054   1.508       .  S
C1048      C1049   1.401       .  A
C1048      H1053   1.084       .  S
C1049      C1050   1.414       .  A
C1050      C1051   1.507       .  S
C1051      H1055   1.110       .  S
C1051      H1056   1.109       .  S
C1054      H1058   1.110       .  S
C1054      H1059   1.108       .  S
C1054      H1060   1.110       .  S
H1057      C1581   1.110       .  S
C1061      C1066   1.421   1_554  A
C1061      C1198   1.516       .  S
C1062      C1063   1.398       .  A
C1062      H1067   1.078       .  S
C1063      C1064   1.393       .  A
C1063      C1579   1.473       .  S
C1064      H1068   1.085       .  S
C1065      C1066   1.405       .  A
C1065      C1560   1.483       .  S
C1066      H1069   1.077       .  S
C1070      C1075   1.421       .  A
C1070      C1143   1.516       .  S
C1071      C1072   1.404       .  A
C1071      H1076   1.079       .  S
C1072      C1544   1.482       .  S
C1073      C1074   1.394       .  A
C1073      H1077   1.085       .  S
C1074      C1075   1.404       .  A
C1074      C1528   1.481       .  S
C1075      H1078   1.077       .  S
C1079      C1080   1.411       .  A
C1079      C1084   1.404       .  A
C1079      C1563   1.484       .  S
C1080      C1081   1.404       .  A
C1080      C1576   1.475       .  S
C1081      C1082   1.399       .  A
C1081      H1086   1.086       .  S
C1082      C1083   1.408       .  A
C1082      C1499   1.480       .  S
C1083      C1084   1.403       .  A
C1083      C1515   1.478       .  S
C1084      H1085   1.085       .  S
O1087     Cr1105   1.989       .  S
O1087      C1095   1.263       .  A
O1088     Cr1105   1.991       .  S
O1088      C1089   1.262       .  A
C1089      C1467   1.499       .  S
C1089      O1090   1.262       .  A
O1090     Cr1106   1.997   1_556  S
O1091     Cr1106   1.993   1_556  S
O1091      C1092   1.265       .  A
C1092      C1432   1.482       .  S
C1092      O1093   1.263       .  A
O1093     Cr1107   1.984   1_556  S
O1094     Cr1107   1.996   1_556  S
O1094      C1095   1.263       .  A
C1095      C1512   1.481       .  S
O1096      C1104   1.264       .  A
O1097      C1098   1.263       .  A
C1098      C1483   1.497       .  S
C1098      O1099   1.263       .  A
O1100      C1101   1.262       .  A
C1101      C1448   1.476       .  S
C1101      O1102   1.263       .  A
O1103      C1104   1.263       .  A
C1104      C1496   1.493       .  S
Cr1105     O1108   1.772       .  S
Cr1106     O1108   1.774   1_554  S
Cr1107     O1108   1.773   1_554  S
C1109      C1110   1.411       .  A
C1109      C1114   1.405       .  A
C1109      C1547   1.484       .  S
C1110      C1111   1.403       .  A
C1110      C1531   1.481       .  S
C1111      C1112   1.402       .  A
C1111      H1116   1.086       .  S
C1112      C1113   1.413       .  A
C1112      C1435   1.482       .  S
C1113      C1114   1.404       .  A
C1113      C1451   1.487       .  S
C1114      H1115   1.085       .  S
C1117      C1118   1.410       .  A
C1117      C1122   1.405       .  A
C1117      C1464   1.485       .  S
C1118      C1119   1.402       .  A
C1118      C1480   1.482       .  S
C1119      C1120   1.402       .  A
C1119      H1124   1.084       .  S
C1120      C1121   1.411       .  A
C1120      C1419   1.479       .  S
C1121      C1122   1.406       .  A
C1121      C1400   1.485       .  S
C1122      H1123   1.084       .  S
C1125      C1130   1.422       .  A
C1125      C1134   1.511       .  S
C1126      C1127   1.402   1_655  A
C1126      H1131   1.077       .  S
C1127      C1416   1.480       .  S
C1128      C1129   1.394   1_455  A
C1128      H1132   1.085       .  S
C1129      C1130   1.404       .  A
C1129      C1403   1.483   1_655  S
C1130      H1133   1.077       .  S
C1134      C1139   1.418       .  A
C1135      C1136   1.405       .  A
C1135      H1140   1.077       .  S
C1136      C1371   1.483       .  S
C1137      C1138   1.393       .  A
C1137      H1141   1.086       .  S
C1138      C1139   1.400       .  A
C1138      C1387   1.477       .  S
C1139      H1142   1.078       .  S
C1143      C1144   1.421       .  A
C1144      C1145   1.403       .  A
C1144      H1149   1.077       .  S
C1145      C1146   1.394       .  A
C1145      C1355   1.479       .  S
C1146      H1150   1.084       .  S
C1147      C1148   1.401       .  A
C1147      C1339   1.477       .  S
C1148      H1151   1.078       .  S
C1152      C1153   1.412       .  A
C1152      C1157   1.404       .  A
C1152      C1368   1.481       .  S
C1153      C1154   1.404       .  A
C1153      C1384   1.481       .  S
C1154      C1155   1.400       .  A
C1154      H1159   1.086       .  S
C1155      C1156   1.409       .  A
C1155      C1307   1.479       .  S
C1156      C1157   1.402       .  A
C1156      C1323   1.481       .  S
C1157      H1158   1.086       .  S
C1160      C1161   1.413       .  A
C1160      C1165   1.406       .  A
C1160      C1336   1.485       .  S
C1161      C1162   1.406       .  A
C1161      C1352   1.487       .  S
C1162      C1163   1.403       .  A
C1162      H1167   1.083       .  S
C1163      C1164   1.411       .  A
C1163      C1288   1.486       .  S
C1164      C1165   1.402       .  A
C1164      C1272   1.485       .  S
C1165      H1166   1.084       .  S
O1168     Cr1186   1.988       .  S
O1168      C1176   1.260       .  A
O1169     Cr1186   1.974       .  S
O1169      C1170   1.260       .  A
C1170      C1304   1.490       .  S
C1170      O1171   1.269       .  A
O1171     Cr1187   2.017   1_556  S
O1172     Cr1187   1.982   1_556  S
O1172      C1173   1.262       .  A
C1173      C1291   1.481       .  S
C1173      O1174   1.264       .  A
O1174     Cr1188   1.997       .  S
O1175     Cr1188   1.997       .  S
O1175      C1176   1.262       .  A
C1176      C1240   1.487       .  S
O1177      C1185   1.260       .  A
O1178      C1179   1.264       .  A
C1179      C1320   1.489       .  S
C1179      O1180   1.262       .  A
O1181      C1182   1.264       .  A
C1182      C1275   1.483       .  S
C1182      O1183   1.262       .  A
O1184      C1185   1.268       .  A
C1185      C1256   1.480       .  S
Cr1186     O1189   1.769   1_556  S
Cr1187     O1189   1.777       .  S
Cr1188     O1189   1.775   1_556  S
C1190      C1191   1.412       .  A
C1190      C1195   1.404       .  A
C1190      C1259   1.487       .  S
C1191      C1192   1.401       .  A
C1191      C1243   1.484       .  S
C1192      C1193   1.406       .  A
C1192      H1197   1.083       .  S
C1193      C1194   1.415       .  A
C1193      C1211   1.488       .  S
C1194      C1195   1.405       .  A
C1194      C1227   1.484       .  S
C1195      H1196   1.083       .  S
C1198      C1203   1.422   1_554  A
C1199      C1200   1.401   1_565  A
C1199      H1204   1.079       .  S
C1200      C1224   1.477       .  S
C1201      C1202   1.395   1_554  A
C1201      H1205   1.085       .  S
C1202      C1203   1.406   1_545  A
C1202      C1208   1.485       .  S
C1203      H1206   1.077       .  S
C1207      C1208   1.403       .  A
C1207      C1212   1.404       .  A
C1207      H1214   1.084       .  S
C1208      C1209   1.413       .  A
C1209      C1210   1.406       .  A
C1209      C1216   1.507       .  S
C1210      C1211   1.404       .  A
C1210      H1215   1.083       .  S
C1211      C1212   1.418       .  A
C1212      C1213   1.511       .  S
C1213      H1217   1.111       .  S
C1213      H1218   1.107       .  S
C1213      H1219   1.107       .  S
C1216      H1220   1.109   1_545  S
C1216      H1221   1.110       .  S
C1216      H1222   1.111       .  S
C1223      C1224   1.402       .  A
C1223      C1228   1.402       .  A
C1223      H1230   1.085       .  S
C1224      C1225   1.409       .  A
C1225      C1226   1.406       .  A
C1225      C1232   1.505       .  S
C1226      C1227   1.406       .  A
C1226      H1231   1.084       .  S
C1227      C1228   1.411       .  A
C1228      C1229   1.504       .  S
C1229      H1233   1.111       .  S
C1229      H1234   1.110       .  S
C1229      H1235   1.105       .  S
C1232      H1236   1.110       .  S
C1232      H1237   1.110       .  S
C1232      H1238   1.111       .  S
C1239      C1240   1.407       .  A
C1239      C1244   1.400       .  A
C1239      H1246   1.084       .  S
C1240      C1241   1.416       .  A
C1241      C1242   1.408       .  A
C1241      C1248   1.506       .  S
C1242      C1243   1.404       .  A
C1242      H1247   1.084       .  S
C1243      C1244   1.411       .  A
C1244      C1245   1.507       .  S
C1245      H1249   1.110       .  S
C1245      H1250   1.111       .  S
C1245      H1251   1.107       .  S
C1248      H1252   1.109       .  S
C1248      H1253   1.111       .  S
C1248      H1254   1.111       .  S
C1255      C1256   1.404       .  A
C1255      C1260   1.403       .  A
C1255      H1262   1.085       .  S
C1256      C1257   1.413       .  A
C1257      C1258   1.404       .  A
C1257      C1264   1.507       .  S
C1258      C1259   1.404       .  A
C1258      H1263   1.083       .  S
C1259      C1260   1.416       .  A
C1260      C1261   1.509       .  S
C1261      H1265   1.111       .  S
C1261      H1266   1.108       .  S
C1261      H1267   1.106       .  S
C1264      H1268   1.109       .  S
C1264      H1269   1.111       .  S
C1264      H1270   1.111       .  S
C1271      C1272   1.400       .  A
C1271      C1276   1.402       .  A
C1271      H1278   1.084       .  S
C1272      C1273   1.413       .  A
C1273      C1274   1.405       .  A
C1273      C1280   1.506       .  S
C1274      C1275   1.404       .  A
C1274      H1279   1.084       .  S
C1275      C1276   1.417       .  A
C1276      C1277   1.505       .  S
C1277      H1281   1.111       .  S
C1277      H1282   1.109       .  S
C1277      H1283   1.110       .  S
C1280      H1284   1.106       .  S
C1280      H1285   1.108       .  S
C1280      H1286   1.111       .  S
C1287      C1288   1.401       .  A
C1287      C1292   1.401       .  A
C1287      H1294   1.082       .  S
C1288      C1289   1.414       .  A
C1289      C1290   1.405       .  A
C1289      C1296   1.507       .  S
C1290      C1291   1.405       .  A
C1290      H1295   1.084       .  S
C1291      C1292   1.416       .  A
C1292      C1293   1.508       .  S
C1293      H1297   1.111       .  S
C1293      H1298   1.109       .  S
C1293      H1299   1.110       .  S
C1296      H1300   1.108       .  S
C1296      H1301   1.109       .  S
C1296      H1302   1.111       .  S
C1303      C1304   1.408       .  A
C1303      C1308   1.403       .  A
C1303      H1310   1.084       .  S
C1304      C1305   1.421       .  A
C1305      C1306   1.403       .  A
C1305      C1312   1.509       .  S
C1306      C1307   1.399       .  A
C1306      H1311   1.082       .  S
C1307      C1308   1.411       .  A
C1308      C1309   1.507       .  S
C1309      H1313   1.111       .  S
C1309      H1314   1.110       .  S
C1309      H1315   1.108       .  S
C1312      H1316   1.110       .  S
C1312      H1317   1.110       .  S
C1312      H1318   1.111       .  S
C1319      C1320   1.408       .  A
C1319      C1324   1.401       .  A
C1319      H1326   1.084       .  S
C1320      C1321   1.418       .  A
C1321      C1322   1.407       .  A
C1321      C1328   1.505       .  S
C1322      C1323   1.401       .  A
C1322      H1327   1.084       .  S
C1323      C1324   1.409       .  A
C1324      C1325   1.507       .  S
C1325      H1329   1.111       .  S
C1325      H1330   1.105       .  S
C1325      H1331   1.110       .  S
C1328      H1332   1.105       .  S
C1328      H1333   1.110       .  S
C1328      H1334   1.111       .  S
C1335      C1336   1.403       .  A
C1335      C1340   1.405       .  A
C1335      H1342   1.084       .  S
C1336      C1337   1.415       .  A
C1337      C1338   1.403       .  A
C1337      C1344   1.506       .  S
C1338      C1339   1.401       .  A
C1338      H1343   1.084       .  S
C1339      C1340   1.412       .  A
C1340      C1341   1.506       .  S
C1341      H1345   1.111       .  S
C1341      H1346   1.110       .  S
C1344      H1348   1.109       .  S
C1344      H1349   1.105       .  S
C1344      H1350   1.111       .  S
C1351      C1352   1.403       .  A
C1351      C1356   1.405       .  A
C1351      H1358   1.084       .  S
C1352      C1353   1.416       .  A
C1353      C1354   1.402       .  A
C1353      C1360   1.507       .  S
C1354      C1355   1.401       .  A
C1354      H1359   1.085       .  S
C1355      C1356   1.414       .  A
C1356      C1357   1.506       .  S
C1357      H1361   1.110       .  S
C1357      H1362   1.108       .  S
C1360      H1364   1.110       .  S
C1360      H1365   1.108       .  S
C1360      H1366   1.111       .  S
C1367      C1368   1.403       .  A
C1367      C1372   1.404       .  A
C1367      H1374   1.084       .  S
C1368      C1369   1.413       .  A
C1369      C1370   1.403       .  A
C1369      C1376   1.507       .  S
C1370      C1371   1.404       .  A
C1370      H1375   1.085       .  S
C1371      C1372   1.412       .  A
C1372      C1373   1.506       .  S
C1373      H1377   1.111       .  S
C1373      H1378   1.109       .  S
C1373      H1379   1.110       .  S
C1376      H1380   1.108       .  S
C1376      H1381   1.111       .  S
C1376      H1382   1.110       .  S
C1383      C1384   1.402       .  A
C1383      C1388   1.403       .  A
C1383      H1390   1.082       .  S
C1384      C1385   1.413       .  A
C1385      C1386   1.402       .  A
C1385      C1392   1.507       .  S
C1386      C1387   1.402       .  A
C1386      H1391   1.084       .  S
C1387      C1388   1.412       .  A
C1388      C1389   1.507       .  S
C1389      H1393   1.111       .  S
C1389      H1394   1.110       .  S
C1389      H1395   1.110       .  S
C1392      H1396   1.109       .  S
C1392      H1397   1.108       .  S
C1392      H1398   1.111       .  S
C1399      C1400   1.404       .  A
C1399      C1404   1.406       .  A
C1399      H1406   1.084       .  S
C1400      C1401   1.415       .  A
C1401      C1402   1.403       .  A
C1401      C1408   1.507       .  S
C1402      C1403   1.403       .  A
C1402      H1407   1.085       .  S
C1403      C1404   1.413       .  A
C1404      C1405   1.507       .  S
C1405      H1409   1.111       .  S
C1405      H1410   1.110       .  S
C1405      H1411   1.110   1_455  S
C1408      H1412   1.110       .  S
C1408      H1413   1.107       .  S
C1408      H1414   1.110       .  S
C1415      C1416   1.403       .  A
C1415      C1420   1.401       .  A
C1415      H1422   1.085       .  S
C1416      C1417   1.415       .  A
C1417      C1418   1.404       .  A
C1417      C1424   1.507       .  S
C1418      C1419   1.403       .  A
C1418      H1423   1.085       .  S
C1419      C1420   1.412       .  A
C1420      C1421   1.506       .  S
C1421      H1425   1.110       .  S
C1421      H1426   1.110       .  S
C1421      H1427   1.106       .  S
C1424      H1430   1.110       .  S
C1431      C1432   1.406       .  A
C1431      C1436   1.401       .  A
C1431      H1438   1.084       .  S
C1432      C1433   1.416       .  A
C1433      C1434   1.405       .  A
C1433      C1440   1.506       .  S
C1434      C1435   1.402       .  A
C1434      H1439   1.084       .  S
C1435      C1436   1.409       .  A
C1436      C1437   1.503       .  S
C1437      H1441   1.111       .  S
C1437      H1442   1.110       .  S
C1437      H1443   1.103       .  S
C1440      H1444   1.111       .  S
C1440      H1445   1.107       .  S
C1440      H1446   1.110       .  S
C1447      C1448   1.402       .  A
C1447      C1452   1.404       .  A
C1447      H1454   1.084       .  S
C1448      C1449   1.414       .  A
C1449      C1450   1.403       .  A
C1449      C1456   1.509       .  S
C1450      C1451   1.404       .  A
C1450      H1455   1.084       .  S
C1451      C1452   1.416       .  A
C1452      C1453   1.510       .  S
C1453      H1457   1.110       .  S
C1453      H1458   1.108       .  S
C1453      H1459   1.108       .  S
C1456      H1460   1.110       .  S
C1456      H1461   1.109       .  S
C1456      H1462   1.111       .  S
C1463      C1464   1.403       .  A
C1463      C1468   1.412       .  A
C1463      H1470   1.084       .  S
C1464      C1465   1.408       .  A
C1465      C1466   1.399       .  A
C1465      C1472   1.510       .  S
C1466      C1467   1.411       .  A
C1466      H1471   1.083       .  S
C1467      C1468   1.422       .  A
C1468      C1469   1.507       .  S
C1469      H1473   1.111       .  S
C1469      H1474   1.110       .  S
C1469      H1475   1.110       .  S
C1472      H1476   1.109       .  S
C1472      H1477   1.109       .  S
C1472      H1478   1.110       .  S
C1479      C1480   1.401       .  A
C1479      C1484   1.407       .  A
C1479      H1486   1.082       .  S
C1480      C1481   1.408       .  A
C1481      C1482   1.400       .  A
C1481      C1488   1.509       .  S
C1482      C1483   1.412       .  A
C1482      H1487   1.083       .  S
C1483      C1484   1.420       .  A
C1484      C1485   1.503       .  S
C1485      H1489   1.111       .  S
C1485      H1490   1.110       .  S
C1485      H1491   1.110       .  S
C1488      H1492   1.109       .  S
C1488      H1493   1.110       .  S
C1488      H1494   1.111       .  S
C1495      C1496   1.408       .  A
C1495      C1500   1.405       .  A
C1495      H1502   1.084       .  S
C1496      C1497   1.422       .  A
C1497      C1498   1.403       .  A
C1497      C1504   1.506       .  S
C1498      C1499   1.397       .  A
C1498      H1503   1.084       .  S
C1499      C1500   1.412       .  A
C1500      C1501   1.507       .  S
C1501      H1505   1.110       .  S
C1501      H1506   1.110       .  S
C1501      H1507   1.109       .  S
C1504      H1508   1.105       .  S
C1504      H1509   1.109       .  S
C1504      H1510   1.111       .  S
C1511      C1512   1.404       .  A
C1511      C1516   1.404       .  A
C1511      H1518   1.084       .  S
C1512      C1513   1.418       .  A
C1513      C1514   1.400       .  A
C1513      C1520   1.507       .  S
C1514      C1515   1.398       .  A
C1514      H1519   1.084       .  S
C1515      C1516   1.414       .  A
C1516      C1517   1.507       .  S
C1517      H1521   1.110       .  S
C1517      H1522   1.110       .  S
C1517      H1523   1.109       .  S
C1520      H1524   1.110       .  S
C1520      H1525   1.109       .  S
C1520      H1526   1.111       .  S
C1527      C1528   1.403       .  A
C1527      C1532   1.401       .  A
C1527      H1534   1.084       .  S
C1528      C1529   1.413       .  A
C1529      C1530   1.406       .  A
C1529      C1536   1.506       .  S
C1530      C1531   1.403       .  A
C1530      H1535   1.083       .  S
C1531      C1532   1.414       .  A
C1532      C1533   1.507       .  S
C1533      H1537   1.110       .  S
C1533      H1538   1.107       .  S
C1533      H1539   1.110       .  S
C1536      H1541   1.109       .  S
C1536      H1542   1.111       .  S
C1543      C1544   1.402       .  A
C1543      C1548   1.403       .  A
C1543      H1550   1.084       .  S
C1544      C1545   1.413       .  A
C1545      C1546   1.406       .  A
C1545      C1552   1.506       .  S
C1546      C1547   1.403       .  A
C1546      H1551   1.083       .  S
C1547      C1548   1.414       .  A
C1548      C1549   1.507       .  S
C1549      H1553   1.111       .  S
C1549      H1554   1.108       .  S
C1549      H1555   1.109       .  S
C1552      H1556   1.110       .  S
C1552      H1557   1.110       .  S
C1552      H1558   1.111       .  S
C1559      C1560   1.403       .  A
C1559      C1564   1.405       .  A
C1559      H1566   1.084       .  S
C1560      C1561   1.414       .  A
C1561      C1562   1.405       .  A
C1561      C1568   1.507       .  S
C1562      C1563   1.402       .  A
C1562      H1567   1.081       .  S
C1563      C1564   1.413       .  A
C1564      C1565   1.506       .  S
C1565      H1569   1.111       .  S
C1565      H1570   1.110       .  S
C1565      H1571   1.110       .  S
C1568      H1572   1.109       .  S
C1568      H1574   1.111       .  S
C1575      C1576   1.401       .  A
C1575      C1580   1.403       .  A
C1575      H1582   1.084       .  S
C1576      C1577   1.415       .  A
C1577      C1578   1.401       .  A
C1577      C1584   1.508       .  S
C1578      C1579   1.400       .  A
C1578      H1583   1.084       .  S
C1579      C1580   1.413       .  A
C1580      C1581   1.508       .  S
C1581      H1585   1.110       .  S
C1581      H1586   1.109       .  S
C1584      H1588   1.110       .  S
C1584      H1589   1.108       .  S
C1584      H1590   1.110       .  S
