geometry optimzed in LAMMPS
_audit_creation_date              2020-12-01 
_audit_creation_method            'lammps2cif' 
_symmetry_space_group_name_H-M    'P1' 
_symmetry_Int_Tables_number       1 
_symmetry_cell_setting            triclinic 
loop_ 
_symmetry_equiv_pos_as_xyz 
  x,y,z 
_cell_length_a                    33.40497392 
_cell_length_b                    33.32991433911107 
_cell_length_c                    26.885267791752163 
_cell_angle_alpha                 88.66926951901273 
_cell_angle_beta                  92.83428011098509 
_cell_angle_gamma                 90.93830625027657 
loop_ 
_atom_site_label 
_atom_site_type_symbol 
_atom_site_fract_x 
_atom_site_fract_y 
_atom_site_fract_z 
_atom_site_charge 
N1          N  0.30820791  0.18519480  0.98771517    -0.00800
C2          C  0.28609662  0.15265401  0.97322998     0.01800
C3          C  0.29544650  0.10918397  0.45976881    -0.21100
C4          C  0.33189312  0.12708817  0.45282600    -0.21300
C5          C  0.33221017  0.16312701  0.47748044     0.01700
H6          H  0.29414387  0.10767749  0.91564144     0.15500
H7          H  0.35603592  0.11427466  0.43333893     0.15600
N8          N  0.50453086  0.41489096  0.27622666    -0.00800
C9          C  0.46685897  0.40654614  0.29110790     0.01800
C10         C  0.46578270  0.36892317  0.31417789    -0.21100
C11         C  0.50335093  0.35338300  0.31219963    -0.21300
C12         C  0.52590224  0.38106363  0.28615152     0.01700
H13         H  0.44060957  0.35421418  0.33116127     0.15500
H14         H  0.51295901  0.32467806  0.32764828     0.15600
N15         N  0.26408680  0.28250299  0.05189332    -0.00800
C16         C  0.20222274  0.27099321  0.47166633     0.01800
C17         C  0.22857292  0.32621887  0.09328690    -0.21100
C18         C  0.26732256  0.34054514  0.09273558    -0.21300
C19         C  0.28803934  0.31426027  0.06491064     0.01700
H20         H  0.20431373  0.34050624  0.11095949     0.15500
H21         H  0.27883817  0.36762048  0.11011507     0.15600
O22         O  0.35575727  0.47513140  0.26986231    -0.70200
O23         O  0.17808022  0.00427584  0.25911684    -0.71200
O24         O  0.23638987  0.00757249  0.33881371    -0.59800
O25         O  0.23971376  0.01123093  0.18991939    -0.68200
O26         O  0.26644421  0.44218313  0.19407708    -0.67800
O27         O  0.27026731  0.44757765  0.34388627    -0.59000
O28         O  0.21547045  0.47292482  0.26654760    -0.71500
O29         O  0.32244455  0.41701973  0.27279434    -0.70300
Cu30       Cu  0.23822179  0.01156209  0.26448460     1.04600
Cu31       Cu  0.26757808  0.44273369  0.26931494     1.04300
C32         C  0.35564926  0.43690636  0.27312712     0.96000
C33         C  0.16116342  0.96962142  0.26214929     0.95100
C34         C  0.28770309  0.47729104  0.36548003     0.87300
C35         C  0.28385655  0.47001222  0.16935645     0.93500
O36         O  0.25686584  0.48190041  0.44278019    -0.70200
O37         O  0.25777497  0.45133242  0.08832353    -0.71200
O38         O  0.20130086  0.03892321  0.00596268    -0.59800
O39         O  0.28992416  0.39641190  0.02185417    -0.68200
O40         O  0.34900203  0.42722253  0.03021381    -0.67800
O41         O  0.26779666  0.03925787  0.01318745    -0.59000
O42         O  0.31671334  0.48301814  0.09522295    -0.71500
O43         O  0.32313479  0.47666010  0.44349067    -0.70300
Cu44       Cu  0.26110098  0.44855724  0.01312876     1.04400
Cu45       Cu  0.32399630  0.48239006  0.02224425     1.04300
C46         C  0.28923104  0.47886992  0.41975161     0.96000
C47         C  0.28589719  0.46789770  0.11509516     0.95100
C48         C  0.23477562  0.05800043  0.00620614     0.87300
C49         C  0.32780941  0.39483455  0.02990468     0.93500
N50         N  0.02595742  0.02493865  0.25063346    -0.00800
C51         C  0.01386124  0.05390627  0.28069502     0.01800
C52         C  0.03291461  0.04908893  0.32736371    -0.21100
C53         C  0.05956111  0.01831262  0.32412587    -0.21300
C54         C  0.05589737  0.00515346  0.27566548     0.01700
H55         H  0.03343151  0.07035698  0.35722572     0.15500
H56         H  0.08390890  0.01185180  0.35105290     0.15600
O57         O  0.97265598  0.19276694  0.27812325    -0.70200
O58         O  0.51880750  0.30218613  0.23845501    -0.71200
O59         O  0.48881428  0.25341289  0.16001794    -0.59800
O60         O  0.48470800  0.24935077  0.30966839    -0.68200
O61         O  0.04723272  0.23087998  0.36093326    -0.67800
O62         O  0.05818099  0.23694361  0.21298189    -0.59000
O63         O  0.06906917  0.29282724  0.29242654    -0.71500
O64         O  0.03684464  0.17613918  0.28251054    -0.70300
Cu65       Cu  0.48439893  0.25227742  0.23453136     1.04600
Cu66       Cu  0.05507181  0.23366706  0.28733452     1.04300
C67         C  0.99975832  0.16602137  0.28102461     0.96000
C68         C  0.55674318  0.30095769  0.24655337     0.95100
C69         C  0.02747797  0.24503054  0.18458088     0.87300
C70         C  0.01463542  0.24119831  0.37966386     0.93500
O71         O  0.44559648  0.23201036  0.48804123    -0.70200
O72         O  0.06885731  0.29108069  0.52265171    -0.71200
O73         O  0.00330075  0.27303408  0.45560762    -0.59800
O74         O  0.02059251  0.27672536  0.10459408    -0.68200
O75         O  0.04435559  0.21482501  0.10991338    -0.67800
O76         O  0.02327792  0.20972529  0.45920833    -0.59000
O77         O  0.08790866  0.22754094  0.52571683    -0.71500
O78         O  0.47604519  0.17323071  0.49003973    -0.70300
Cu79       Cu  0.00998248  0.27756598  0.53015883     1.04600
Cu80       Cu  0.03072592  0.20970416  0.53382459     1.04300
C81         C  0.44393000  0.19372130  0.48874321     0.96000
C82         C  0.09625124  0.26482159  0.52015569     0.95100
C83         C  0.01272257  0.24105864  0.43395807     0.87300
C84         C  0.03099620  0.24566023  0.13053053     0.93500
C85         C  0.98887506  0.12311244  0.28722896    -0.13700
C86         C  0.00598760  0.09502730  0.26062706    -0.28900
H87         H  0.97239817  0.11425439  0.31964252     0.15300
H88         H  0.02126344  0.10421307  0.22735249     0.15900
C89         C  0.11781902  0.96659069  0.27016632    -0.13700
C90         C  0.09213803  0.99364394  0.25021967    -0.28900
H91         H  0.18466755  0.56744465  0.26642573     0.15300
H92         H  0.10135682  0.01313090  0.21974940     0.15900
C93         C  0.33029429  0.32004732  0.05080268    -0.13700
C94         C  0.34791091  0.35552565  0.03794443    -0.28900
H95         H  0.31153256  0.34294372  0.46318484     0.15300
H96         H  0.37977270  0.35518516  0.03163121     0.15900
C97         C  0.16763663  0.25423113  0.49852890    -0.13700
C98         C  0.13678832  0.27855981  0.50697829    -0.28900
H99         H  0.16627175  0.22238560  0.50783050     0.15300
H100        H  0.15423557  0.32124819  0.05426942     0.15900
C101        C  0.02442378  0.48974866  0.26503813    -0.10600
C102        C  0.04745897  0.51742592  0.25656935    -0.12100
C103        C  0.43077159  0.43187087  0.28144377    -0.13700
C104        C  0.39366642  0.41475821  0.27874846    -0.28900
H105        H  0.43459088  0.46403830  0.27580590     0.15300
H106        H  0.39051085  0.38234917  0.28180076     0.15900
C107        C  0.56704994  0.37410828  0.26984874    -0.13700
C108        C  0.58076462  0.33856132  0.25437671    -0.28900
H109        H  0.58762314  0.39967513  0.26996638     0.15300
H110        H  0.07220820  0.36759964  0.32982473     0.15900
C111        C  0.29225968  0.21786861  0.01252367    -0.10600
C112        C  0.27760713  0.24707179  0.03045110    -0.12100
C113        C  0.40521514  0.17182731  0.48638440    -0.13700
C114        C  0.36872263  0.18888308  0.48479769    -0.28900
H115        H  0.40724777  0.13939811  0.48481129     0.15300
H116        H  0.37806760  0.23958162  0.98430778     0.15900
C117        C  0.26479290  0.12604907  0.00841210    -0.13700
C118        C  0.23563629  0.10098528  0.99140147    -0.28900
H119        H  0.28094111  0.11881041  0.04346039     0.15300
H120        H  0.20238988  0.09937554  0.46351850     0.15900
N121        N  0.29652505  0.16825754  0.49852379    -0.00800
C122        C  0.27445104  0.13460365  0.48865385     0.01800
C123        C  0.30264938  0.13599289  0.93239107    -0.21100
C124        C  0.33696727  0.15757028  0.92339662    -0.21300
C125        C  0.34039047  0.18717560  0.95866407     0.01700
H126        H  0.28676350  0.07920855  0.44849636     0.15500
H127        H  0.35890921  0.15004035  0.89695707     0.15600
N128        N  0.50867978  0.43978912  0.71016713    -0.00800
C129        C  0.47272354  0.45355044  0.69276159     0.01800
C130        C  0.46191461  0.43585977  0.64803114    -0.21100
C131        C  0.49202713  0.40984441  0.63839869    -0.21300
C132        C  0.52002740  0.41196288  0.67795129     0.01700
H133        H  0.43309178  0.43776651  0.62793845     0.15500
H134        H  0.49038094  0.38734368  0.60993813     0.15600
N135        N  0.24072189  0.27279704  0.49040522    -0.00800
C136        C  0.22677311  0.29085800  0.06685455     0.01800
C137        C  0.19704509  0.29663979  0.43085287    -0.21100
C138        C  0.23306557  0.31582994  0.42506819    -0.21300
C139        C  0.25896327  0.30209346  0.46321681     0.01700
H140        H  0.16907789  0.30362090  0.41069030     0.15500
H141        H  0.23772164  0.34184358  0.40104178     0.15600
O142        O  0.36794040  0.49148690  0.76560691    -0.70200
O143        O  0.18597256  0.02867772  0.75810991    -0.71200
O144        O  0.24224295  0.00626733  0.83679580    -0.59800
O145        O  0.23971644  0.00272454  0.68744691    -0.68200
O146        O  0.29146877  0.44338220  0.69168486    -0.67800
O147        O  0.29167558  0.43672593  0.84019504    -0.59000
O148        O  0.23341207  0.45484302  0.76203734    -0.71500
O149        O  0.35116639  0.42676092  0.76671795    -0.70300
Cu150      Cu  0.24147481  0.00714086  0.76199014     1.04600
Cu151      Cu  0.29150727  0.43809325  0.76550987     1.04300
C152        C  0.37764662  0.45478070  0.76278959     0.96000
C153        C  0.15453700  0.00641071  0.75544271     0.95100
C154        C  0.30243005  0.46711105  0.86586127     0.87300
C155        C  0.29787236  0.47699300  0.66979012     0.93500
O156        O  0.26947560  0.44801321  0.93923286    -0.70200
O157        O  0.26210776  0.48353414  0.59233898    -0.71200
O158        O  0.18973935  0.02543842  0.50622403    -0.59800
O159        O  0.25187099  0.42342887  0.52064922    -0.68200
O160        O  0.31735204  0.41424689  0.51719359    -0.67800
O161        O  0.25535985  0.03493653  0.51867005    -0.59000
O162        O  0.32780581  0.47370408  0.59245394    -0.71500
O163        O  0.32753691  0.48113700  0.94789428    -0.70300
Cu164      Cu  0.25699353  0.48325153  0.51787842     1.04400
Cu165      Cu  0.32749897  0.47477143  0.51788130     1.04300
C166        C  0.29996134  0.46497164  0.92020766     0.96000
C167        C  0.29592239  0.47864176  0.61568701     0.95100
C168        C  0.22015401  0.04900862  0.51070406     0.87300
C169        C  0.28162640  0.40001204  0.51936046     0.93500
N170        N  0.01496940  0.03762591  0.72728523    -0.00800
C171        C  0.00131112  0.07274812  0.70621439     0.01800
C172        C  0.02439382  0.08398761  0.66663881    -0.21100
C173        C  0.05552929  0.05785184  0.66680122    -0.21300
C174        C  0.04944093  0.03046835  0.70500363     0.01700
H175        H  0.02350573  0.11254496  0.64657664     0.15500
H176        H  0.08210152  0.06128440  0.64553396     0.15600
O177        O  0.99122343  0.19018723  0.77724490    -0.70200
O178        O  0.49608765  0.29172552  0.73806251    -0.71200
O179        O  0.48905768  0.23197429  0.66465441    -0.59800
O180        O  0.49639199  0.23342178  0.81439750    -0.68200
O181        O  0.07096681  0.23402592  0.85872456    -0.67800
O182        O  0.06696606  0.24021840  0.70829202    -0.59000
O183        O  0.08264786  0.29631751  0.78859703    -0.71500
O184        O  0.05651645  0.17848114  0.78097957    -0.70300
Cu185      Cu  0.49014184  0.23201049  0.73979437     1.04600
Cu186      Cu  0.07152828  0.23681612  0.78392337     1.04300
C187        C  0.02032915  0.16558544  0.77720531     0.96000
C188        C  0.52979004  0.30991922  0.73487889     0.95100
C189        C  0.03371994  0.24768429  0.68437860     0.87300
C190        C  0.03904337  0.24133485  0.88090786     0.93500
O191        O  0.45877777  0.24684089  0.97815555    -0.70200
O192        O  0.08292221  0.29551593  0.03774726    -0.71200
O193        O  0.02830432  0.27486989  0.95565120    -0.59800
O194        O  0.01804275  0.27767635  0.60501730    -0.68200
O195        O  0.03859952  0.21457427  0.60805975    -0.67800
O196        O  0.05174497  0.21283900  0.96152830    -0.59000
O197        O  0.10591015  0.23342273  0.04294739    -0.71500
O198        O  0.48507966  0.18607216  0.98190975    -0.70300
Cu199      Cu  0.02439011  0.27855416  0.02993575     1.04600
Cu200      Cu  0.04864089  0.21193143  0.03586395     1.04300
C201        C  0.45441254  0.20879221  0.97691194     0.96000
C202        C  0.11234582  0.27133022  0.04292546     0.95100
C203        C  0.04007793  0.24315656  0.93522414     0.87300
C204        C  0.03067132  0.24688920  0.62991204     0.93500
C205        C  0.01400159  0.12180572  0.77075894    -0.13700
C206        C  0.98783881  0.10659223  0.73605212    -0.28900
H207        H  0.03892633  0.10313153  0.78393683     0.15300
H208        H  0.96548404  0.12631672  0.71844343     0.15900
C209        C  0.11600202  0.02609556  0.74440334    -0.13700
C210        C  0.08233935  0.00668189  0.72862791    -0.28900
H211        H  0.17650320  0.53534391  0.76912793     0.15300
H212        H  0.08010872  0.97414414  0.72957629     0.15900
C213        C  0.28723850  0.33207747  0.48556642    -0.13700
C214        C  0.27280124  0.35645355  0.51937260    -0.28900
H215        H  0.34855921  0.29339283  0.05078216     0.15300
H216        H  0.24545707  0.34713315  0.53708497     0.15900
C217        C  0.18836395  0.26869113  0.05396215    -0.13700
C218        C  0.15331903  0.28887166  0.05059013    -0.28900
H219        H  0.18879827  0.23672745  0.04719224     0.15300
H220        H  0.14014676  0.31050582  0.49875078     0.15900
C221        C  0.04385482  0.48785098  0.75555902    -0.10600
C222        C  0.06752274  0.50873813  0.73360541    -0.12100
C223        C  0.44225104  0.46995157  0.72448571    -0.13700
C224        C  0.41878107  0.44431582  0.75017128    -0.28900
H225        H  0.43305682  0.50072599  0.71730298     0.15300
H226        H  0.42675047  0.41281184  0.75305912     0.15900
C227        C  0.54232940  0.37540841  0.69373435    -0.13700
C228        C  0.52962418  0.35412445  0.73314345    -0.28900
H229        H  0.55877518  0.36028315  0.66594963     0.15300
H230        H  0.08088795  0.36790631  0.83877748     0.15900
C231        C  0.27911971  0.20575023  0.50687003    -0.10600
C232        C  0.26163640  0.23748691  0.50460025    -0.12100
C233        C  0.41417972  0.19017243  0.96779437    -0.13700
C234        C  0.37879357  0.20913456  0.97091964    -0.28900
H235        H  0.41387495  0.15867965  0.95819793     0.15300
H236        H  0.36579691  0.22094857  0.48948579     0.15900
C237        C  0.24246794  0.11870407  0.52007815    -0.13700
C238        C  0.21550947  0.09248027  0.50045230    -0.28900
H239        H  0.25257494  0.11387610  0.55875578     0.15300
H240        H  0.21863484  0.10898782  0.95720206     0.15900
N241        N  0.27728583  0.67725232  0.98078146    -0.00800
C242        C  0.26109098  0.64155044  0.96624076     0.01800
C243        C  0.31565781  0.65951072  0.61899098    -0.21100
C244        C  0.34448196  0.68944355  0.62014277    -0.21300
C245        C  0.34176776  0.70900193  0.57424091     0.01700
H246        H  0.27393652  0.60175606  0.90446062     0.15500
H247        H  0.36884083  0.69212926  0.64801803     0.15600
N248        N  0.46031343  0.94265797  0.25582211    -0.00800
C249        C  0.42713363  0.94815735  0.28175310     0.01800
C250        C  0.42735184  0.92321379  0.32342806    -0.21100
C251        C  0.46074791  0.90004758  0.32177823    -0.21300
C252        C  0.47949957  0.91102726  0.27851960     0.01700
H253        H  0.40284820  0.91792570  0.34776429     0.15500
H254        H  0.46609796  0.87311854  0.34427569     0.15600
N255        N  0.21086957  0.77357790  0.96731675    -0.00800
C256        C  0.21418499  0.75415664  0.42414997     0.01800
C257        C  0.17980476  0.79630991  0.89620700    -0.21100
C258        C  0.21410682  0.81870713  0.90403191    -0.21300
C259        C  0.23185259  0.80529650  0.94878162     0.01700
H260        H  0.15618313  0.80236090  0.86813835     0.15500
H261        H  0.22144449  0.84615105  0.88388868     0.15600
O262        O  0.29887428  0.01375612  0.27146130    -0.70200
O263        O  0.24974927  0.53045766  0.26266224    -0.71200
O264        O  0.30451483  0.50523171  0.34039270    -0.59800
O265        O  0.30122575  0.49949752  0.19154601    -0.68200
O266        O  0.24112736  0.94459036  0.18958452    -0.67800
O267        O  0.24256426  0.94124207  0.33912575    -0.59000
O268        O  0.18198348  0.93781397  0.26328256    -0.71500
O269        O  0.30235406  0.94746950  0.26699145    -0.70300
Cu270      Cu  0.30374551  0.50463782  0.26576994     1.04600
Cu271      Cu  0.24226798  0.94046575  0.26438926     1.04300
C272        C  0.31953993  0.98179132  0.27201571     0.96000
C273        C  0.21639867  0.51126437  0.26485646     0.95100
C274        C  0.23858371  0.97388339  0.36221625     0.87300
C275        C  0.24008274  0.97845760  0.16636070     0.93500
O276        O  0.20214085  0.96609585  0.43508167    -0.70200
O277        O  0.20429160  0.98229650  0.08841881    -0.71200
O278        O  0.23562171  0.50293692  0.00381450    -0.59800
O279        O  0.20060094  0.91857712  0.02041646    -0.68200
O280        O  0.26654316  0.91787224  0.01354528    -0.67800
O281        O  0.29440683  0.53443726  0.01424189    -0.59000
O282        O  0.27055407  0.97718919  0.08876323    -0.71500
O283        O  0.26768175  0.97851363  0.44366738    -0.70300
Cu284      Cu  0.19868000  0.97859314  0.01388604     1.04400
Cu285      Cu  0.26964507  0.97864921  0.01395368     1.04300
C286        C  0.23603077  0.97271525  0.41615326     0.96000
C287        C  0.23830728  0.97958299  0.11200133     0.95100
C288        C  0.25647512  0.53539399  0.00507647     0.87300
C289        C  0.23295744  0.89921616  0.01672285     0.93500
N290        N  0.07403922  0.55088565  0.25820978    -0.00800
C291        C  0.06018118  0.58829952  0.26512396     0.01800
C292        C  0.08600610  0.60916484  0.29729747    -0.21100
C293        C  0.11760391  0.58464316  0.30909941    -0.21300
C294        C  0.11016865  0.54943508  0.28369130     0.01700
H295        H  0.08474659  0.64071090  0.30577767     0.15500
H296        H  0.14480090  0.59308220  0.33010885     0.15600
O297        O  0.97016247  0.69359512  0.21759685    -0.70200
O298        O  0.47908768  0.79332754  0.26047914    -0.71200
O299        O  0.46330712  0.73329902  0.18793208    -0.59800
O300        O  0.47658973  0.73420357  0.33864962    -0.68200
O301        O  0.03961835  0.76374334  0.27598650    -0.67800
O302        O  0.02607516  0.75222893  0.12751088    -0.59000
O303        O  0.02814360  0.81933890  0.19275762    -0.71500
O304        O  0.03612462  0.69821446  0.21117688    -0.70300
Cu305      Cu  0.46758756  0.73393856  0.26341656     1.04600
Cu306      Cu  0.03478231  0.75867438  0.20133671     1.04300
C307        C  0.00455402  0.67743713  0.22007580     0.96000
C308        C  0.51481850  0.80770385  0.26238968     0.95100
C309        C  0.99121889  0.74809232  0.10647137     0.87300
C310        C  0.00900942  0.76121662  0.30259526     0.93500
O311        O  0.45904773  0.74336387  0.52106192    -0.70200
O312        O  0.07964915  0.79208797  0.45259980    -0.71200
O313        O  0.01215073  0.79033039  0.38285950    -0.59800
O314        O  0.97733137  0.77470360  0.02471271    -0.68200
O315        O  0.99839585  0.71191268  0.03210441    -0.67800
O316        O  0.02159056  0.72474902  0.37811117    -0.59000
O317        O  0.08712812  0.72613997  0.45066224    -0.71500
O318        O  0.46622792  0.67786863  0.51215380    -0.70300
Cu319      Cu  0.01963587  0.78790207  0.45800622     1.04600
Cu320      Cu  0.02676032  0.71745489  0.45275303     1.04300
C321        C  0.44394050  0.70798608  0.51877763     0.96000
C322        C  0.10225741  0.76164331  0.45012037     0.95100
C323        C  0.01463950  0.75886407  0.35703366     0.87300
C324        C  0.98790873  0.74441019  0.05193508     0.93500
C325        C  0.00832062  0.63615426  0.24060549    -0.13700
C326        C  0.03664261  0.61137594  0.22674963    -0.28900
H327        H  0.99387999  0.62989394  0.27536204     0.15300
H328        H  0.05075607  0.61719790  0.19169857     0.15900
C329        C  0.17979395  0.53511729  0.26762701    -0.13700
C330        C  0.14241501  0.52058792  0.27447784    -0.28900
H331        H  0.10817026  0.94588393  0.29916295     0.15300
H332        H  0.13575647  0.48863289  0.27313294     0.15900
C333        C  0.25224534  0.83564740  0.98063699    -0.13700
C334        C  0.22978702  0.85521116  0.01215185    -0.28900
H335        H  0.29377382  0.85626680  0.45437393     0.15300
H336        H  0.20161699  0.84140286  0.02270366     0.15900
C337        C  0.17336957  0.74083531  0.43782605    -0.13700
C338        C  0.14582730  0.76906969  0.44527823    -0.28900
H339        H  0.16520830  0.70919213  0.43732815     0.15300
H340        H  0.11335251  0.80880310  0.95194041     0.15900
C341        C  0.97391506  0.98264354  0.19688919    -0.10600
C342        C  0.99800497  0.00338447  0.22018924    -0.12100
C343        C  0.38876534  0.96219435  0.25815133    -0.13700
C344        C  0.36322665  0.98373867  0.28329807    -0.28900
H345        H  0.37867111  0.94883372  0.22315275     0.15300
H346        H  0.37373195  0.99836211  0.31731251     0.15900
C347        C  0.49638964  0.87852195  0.24948356    -0.13700
C348        C  0.52090184  0.85104046  0.27151357    -0.28900
H349        H  0.48007785  0.87112074  0.21484841     0.15300
H350        H  0.96971173  0.89067296  0.22090655     0.15900
C351        C  0.25200555  0.70952327  0.98977406    -0.10600
C352        C  0.23155504  0.73927362  0.98550743    -0.12100
C353        C  0.40080401  0.70084012  0.52602468    -0.13700
C354        C  0.37867769  0.72530612  0.55258209    -0.28900
H355        H  0.38850724  0.67157542  0.51594222     0.15300
H356        H  0.35170227  0.73544176  0.95031283     0.15900
C357        C  0.25436442  0.60901856  0.00356868    -0.13700
C358        C  0.23754311  0.57380956  0.98989827    -0.28900
H359        H  0.27373742  0.60981964  0.03724299     0.15300
H360        H  0.33812389  0.61338211  0.52114732     0.15900
N361        N  0.31103700  0.69312992  0.54606466    -0.00800
C362        C  0.29618275  0.66174977  0.57245323     0.01800
C363        C  0.27726272  0.63064726  0.92194126    -0.21100
C364        C  0.30728942  0.65784309  0.91253096    -0.21300
C365        C  0.30733438  0.68530693  0.95001783     0.01700
H366        H  0.31375207  0.63490309  0.64581321     0.15500
H367        H  0.33027817  0.65439120  0.88602326     0.15600
N368        N  0.43511781  0.92068841  0.72508816    -0.00800
C369        C  0.39727692  0.92942117  0.70847280     0.01800
C370        C  0.38480077  0.90561886  0.66918776    -0.21100
C371        C  0.41531506  0.87995789  0.66241495    -0.21300
C372        C  0.44500321  0.88823932  0.69881344     0.01700
H373        H  0.35499989  0.90389723  0.65152877     0.15500
H374        H  0.41338190  0.85404606  0.63880266     0.15600
N375        N  0.24193577  0.76700442  0.45894305    -0.00800
C376        C  0.17814480  0.76941627  0.93595860     0.01800
C377        C  0.21802425  0.77666381  0.38061949    -0.21100
C378        C  0.24706769  0.80552293  0.39025462    -0.21300
C379        C  0.26009937  0.79993636  0.43940244     0.01700
H380        H  0.19707256  0.77692037  0.34858131     0.15500
H381        H  0.25255920  0.83177183  0.36695045     0.15600
O382        O  0.29497446  0.98225525  0.76465286    -0.70200
O383        O  0.25182291  0.51865135  0.77134760    -0.71200
O384        O  0.31380756  0.49979588  0.84457288    -0.59800
O385        O  0.30582669  0.50870601  0.69447446    -0.68200
O386        O  0.21091477  0.94215490  0.68977239    -0.67800
O387        O  0.21251807  0.94615643  0.83908358    -0.59000
O388        O  0.15696903  0.96822204  0.75921190    -0.71500
O389        O  0.26757349  0.92110619  0.76757843    -0.70300
Cu390      Cu  0.31047975  0.50691148  0.76955735     1.04600
Cu391      Cu  0.21102445  0.94217985  0.76443963     1.04300
C392        C  0.29839493  0.94426950  0.76472229     0.96000
C393        C  0.22441819  0.49185774  0.76468913     0.95100
C394        C  0.22801785  0.97650576  0.86135831     0.87300
C395        C  0.22556748  0.97167755  0.66529101     0.93500
O396        O  0.19776737  0.97436180  0.93930872    -0.70200
O397        O  0.19506481  0.96518124  0.58413367    -0.71200
O398        O  0.26621325  0.54297634  0.51683742    -0.59800
O399        O  0.20677745  0.90615793  0.51125737    -0.68200
O400        O  0.27282062  0.91549467  0.51538214    -0.67800
O401        O  0.33218658  0.53533007  0.51866921    -0.59000
O402        O  0.26122282  0.97344773  0.59180032    -0.71500
O403        O  0.26411582  0.98015410  0.93911166    -0.70300
Cu404      Cu  0.19608440  0.96529651  0.50921000     1.04400
Cu405      Cu  0.26654795  0.97585798  0.51802959     1.04300
C406        C  0.23001418  0.97700805  0.91576984     0.96000
C407        C  0.22725014  0.96976167  0.61124141     0.95100
C408        C  0.30164199  0.55797488  0.51943858     0.87300
C409        C  0.24212683  0.89212355  0.51115376     0.93500
N410        N  0.09566322  0.53084294  0.70628304    -0.00800
C411        C  0.09028751  0.56714705  0.68347535     0.01800
C412        C  0.12137446  0.57536293  0.65240457    -0.21100
C413        C  0.14710884  0.54367204  0.65764694    -0.21300
C414        C  0.13111224  0.51706108  0.69181718     0.01700
H415        H  0.12655775  0.60295966  0.63151718     0.15500
H416        H  0.17655981  0.54245360  0.64269855     0.15600
O417        O  0.01468148  0.67036068  0.70420308    -0.70200
O418        O  0.45478977  0.74832601  0.74127922    -0.71200
O419        O  0.49248582  0.69082718  0.68365178    -0.59800
O420        O  0.47102893  0.70046707  0.82959008    -0.68200
O421        O  0.03355041  0.75554626  0.78546368    -0.67800
O422        O  0.05070839  0.76066235  0.63750310    -0.59000
O423        O  0.01398099  0.81055327  0.70576849    -0.71500
O424        O  0.07133052  0.70525572  0.71674705    -0.70300
Cu425      Cu  0.47959400  0.69449605  0.75620822     1.04600
Cu426      Cu  0.04448980  0.75899084  0.71211674     1.04300
C427        C  0.05278244  0.67168430  0.71088626     0.96000
C428        C  0.47458435  0.78152174  0.74132714     0.95100
C429        C  0.02514433  0.74329660  0.60793156     0.87300
C430        C  0.00234212  0.73797828  0.80183590     0.93500
O431        O  0.42224228  0.73805104  0.99975123    -0.70200
O432        O  0.03892549  0.78891690  0.95606809    -0.71200
O433        O  0.98518560  0.77020638  0.87552586    -0.59800
O434        O  0.02692413  0.78127182  0.53252838    -0.68200
O435        O  0.03023082  0.71496011  0.52805601    -0.67800
O436        O  0.00233938  0.70613233  0.88207992    -0.59000
O437        O  0.05785572  0.72532082  0.96095206    -0.71500
O438        O  0.44122346  0.67498422  0.01271648    -0.70300
Cu439      Cu  0.98017382  0.77436405  0.94980655     1.04600
Cu440      Cu  0.00056982  0.70648165  0.95725060     1.04300
C441        C  0.41364466  0.70068666  0.00368478     0.96000
C442        C  0.06655171  0.76270744  0.95865738     0.95100
C443        C  0.99586627  0.73790530  0.85553674     0.87300
C444        C  0.02867714  0.74664434  0.55377933     0.93500
C445        C  0.07692233  0.63520493  0.70845455    -0.13700
C446        C  0.06214778  0.59826676  0.69805154    -0.28900
H447        H  0.10925912  0.63987530  0.71063641     0.15300
H448        H  0.03019083  0.59172487  0.69754370     0.15900
C449        C  0.18271358  0.50541656  0.75642429    -0.13700
C450        C  0.15756835  0.48933294  0.72130463    -0.28900
H451        H  0.11663511  0.05875946  0.74303813     0.15300
H452        H  0.16540515  0.46152414  0.70417506     0.15900
C453        C  0.27174394  0.83550172  0.46929867    -0.13700
C454        C  0.24621474  0.84881820  0.50230478    -0.28900
H455        H  0.27820278  0.85093681  0.96580795     0.15300
H456        H  0.22121734  0.82950794  0.51243543     0.15900
C457        C  0.13962196  0.75192920  0.95132073    -0.13700
C458        C  0.10843200  0.77655169  0.95568294    -0.28900
H459        H  0.13630107  0.71961319  0.95583211     0.15300
H460        H  0.15552350  0.80039762  0.44471929     0.15900
C461        C  0.96465745  0.97702180  0.72576682    -0.10600
C462        C  0.98827033  0.00467680  0.73253058    -0.12100
C463        C  0.36800415  0.94910308  0.73856225    -0.13700
C464        C  0.33746915  0.92682361  0.75609932    -0.28900
H465        H  0.36758588  0.98166865  0.73845761     0.15300
H466        H  0.33865992  0.89426955  0.75476594     0.15900
C467        C  0.46999426  0.85521082  0.72067739    -0.13700
C468        C  0.45305146  0.81834609  0.72632524    -0.28900
H469        H  0.50118707  0.86090333  0.73191043     0.15300
H470        H  0.92207090  0.84212848  0.67514925     0.15900
C471        C  0.28611749  0.71731634  0.51428026    -0.10600
C472        C  0.26437979  0.73987120  0.48977238    -0.12100
C473        C  0.37196084  0.68623220  0.99564434    -0.13700
C474        C  0.34455972  0.70632435  0.96683294    -0.28900
H475        H  0.36490733  0.65585301  0.00845109     0.15300
H476        H  0.39184948  0.75281023  0.56742007     0.15900
C477        C  0.28158460  0.62440093  0.54863158    -0.13700
C478        C  0.30811159  0.60145470  0.52646968    -0.28900
H479        H  0.25284199  0.61184325  0.55879143     0.15300
H480        H  0.21673668  0.57307533  0.95754543     0.15900
N481        N  0.81334437  0.20272556  0.99167910    -0.00800
C482        C  0.79496661  0.17093019  0.96932341     0.01800
C483        C  0.79911919  0.15908460  0.60693175    -0.21100
C484        C  0.83292154  0.18284293  0.61135609    -0.21300
C485        C  0.83156986  0.20956876  0.57114605     0.01700
H486        H  0.81504804  0.12677732  0.91619074     0.15500
H487        H  0.85806132  0.17789632  0.63763087     0.15600
N488        N  0.00058028  0.45891426  0.28603980    -0.00800
C489        C  0.97173310  0.46827635  0.31755083     0.01800
C490        C  0.97477113  0.44422618  0.36011259    -0.21100
C491        C  0.00486627  0.41783277  0.35356952    -0.21300
C492        C  0.01900494  0.42613950  0.30680059     0.01700
H493        H  0.95354618  0.44213388  0.38925326     0.15500
H494        H  0.01049136  0.39114795  0.37641650     0.15600
N495        N  0.75171326  0.29487719  0.04399435    -0.00800
C496        C  0.69599665  0.29245986  0.45542787     0.01800
C497        C  0.70553379  0.33372543  0.07553420    -0.21100
C498        C  0.74259146  0.35036026  0.08739848    -0.21300
C499        C  0.77039578  0.32723389  0.06532252     0.01700
H500        H  0.67728576  0.34481526  0.08716213     0.15500
H501        H  0.74835685  0.37592337  0.11090317     0.15600
O502        O  0.84940496  0.51352483  0.29153445    -0.70200
O503        O  0.69567543  0.05737201  0.24333229    -0.71200
O504        O  0.75985208  0.03531228  0.31084839    -0.59800
O505        O  0.74238352  0.03815345  0.16064655    -0.68200
O506        O  0.76722771  0.46188066  0.21996774    -0.67800
O507        O  0.77453118  0.46892376  0.36968771    -0.59000
O508        O  0.71285610  0.48057062  0.29430376    -0.71500
O509        O  0.82920607  0.44983456  0.29613182    -0.70300
Cu510      Cu  0.75198294  0.03915357  0.23551686     1.04600
Cu511      Cu  0.77033529  0.46306020  0.29511631     1.04300
C512        C  0.85747676  0.47619851  0.29509065     0.96000
C513        C  0.66572485  0.03343791  0.24794065     0.95100
C514        C  0.78535787  0.50177436  0.39037439     0.87300
C515        C  0.77781046  0.49249270  0.19403777     0.93500
O516        O  0.75732722  0.50874418  0.46910675    -0.70200
O517        O  0.75204552  0.47365436  0.11295612    -0.71200
O518        O  0.69746907  0.06522964  0.97634696    -0.59800
O519        O  0.78037505  0.41590554  0.04695633    -0.68200
O520        O  0.84106709  0.44211119  0.06006071    -0.67800
O521        O  0.76343076  0.05733390  0.98360105    -0.59000
O522        O  0.81193537  0.50339638  0.12051258    -0.71500
O523        O  0.82240892  0.49641828  0.46747901    -0.70300
Cu524      Cu  0.75596767  0.47008611  0.03784192     1.04400
Cu525      Cu  0.82101990  0.49918089  0.04821003     1.04300
C526        C  0.78859289  0.50306732  0.44481567     0.96000
C527        C  0.78032687  0.48974044  0.13994286     0.95100
C528        C  0.73297692  0.07994235  0.97675062     0.87300
C529        C  0.81758824  0.41131530  0.05741972     0.93500
N530        N  0.51853534  0.04713329  0.25520882    -0.00800
C531        C  0.49774339  0.07979298  0.26763537     0.01800
C532        C  0.52044621  0.10301395  0.30068697    -0.21100
C533        C  0.55766149  0.08627700  0.30500091    -0.21300
C534        C  0.55599568  0.05235335  0.27606577     0.01700
H535        H  0.51145501  0.13000220  0.31846324     0.15500
H536        H  0.58345629  0.09824169  0.32599751     0.15600
O537        O  0.45343912  0.19951649  0.23142960    -0.70200
O538        O  0.00561793  0.30997092  0.27728850    -0.71200
O539        O  0.99368614  0.25192149  0.20272272    -0.59800
O540        O  0.98470301  0.25252240  0.35173394    -0.68200
O541        O  0.53887736  0.21145274  0.31428566    -0.67800
O542        O  0.54522869  0.21888306  0.16665409    -0.59000
O543        O  0.57452428  0.26718745  0.24767194    -0.71500
O544        O  0.50913878  0.16439651  0.23353619    -0.70300
Cu545      Cu  0.98687881  0.25232535  0.27680792     1.04600
Cu546      Cu  0.54386209  0.21428286  0.24053931     1.04300
C547        C  0.47089641  0.16561578  0.23249070     0.96000
C548        C  0.04232648  0.31976558  0.28677678     0.95100
C549        C  0.51821155  0.23703552  0.14007158     0.87300
C550        C  0.51138965  0.22980631  0.33542280     0.93500
O551        O  0.95211585  0.25937145  0.53746680    -0.70200
O552        O  0.55517003  0.28474275  0.48562749    -0.71200
O553        O  0.49671184  0.25829923  0.41243784    -0.59800
O554        O  0.50961143  0.26909801  0.06044935    -0.68200
O555        O  0.53644551  0.20848340  0.06536312    -0.67800
O556        O  0.52765599  0.19974669  0.41439650    -0.59000
O557        O  0.58531533  0.22583594  0.48737055    -0.71500
O558        O  0.97185976  0.19611196  0.54153564    -0.70300
Cu559      Cu  0.49915930  0.26047434  0.48723451     1.04600
Cu560      Cu  0.53165411  0.19753178  0.48919589     1.04300
C561        C  0.94394925  0.22196274  0.54272145     0.96000
C562        C  0.58714086  0.26408569  0.48458032     0.95100
C563        C  0.51150460  0.22908947  0.38992388     0.87300
C564        C  0.52131449  0.23835517  0.08608977     0.93500
C565        C  0.44583429  0.12813314  0.23189553    -0.13700
C566        C  0.45758631  0.09054384  0.24581904    -0.28900
H567        H  0.41480517  0.13143389  0.21855897     0.15300
H568        H  0.43619891  0.06608235  0.23946876     0.15900
C569        C  0.62672297  0.05103803  0.25730620    -0.13700
C570        C  0.59209693  0.03034429  0.26271954    -0.28900
H571        H  0.65994274  0.56392842  0.29945178     0.15300
H572        H  0.59011700  0.99836338  0.25601064     0.15900
C573        C  0.81464893  0.33460397  0.06745163    -0.13700
C574        C  0.83454279  0.37050996  0.06577582    -0.28900
H575        H  0.80551511  0.36531705  0.47549552     0.15300
H576        H  0.86705862  0.36938244  0.06914048     0.15900
C577        C  0.66159923  0.26792784  0.47318239    -0.13700
C578        C  0.62559483  0.28549222  0.47689975    -0.28900
H579        H  0.66544147  0.23622576  0.48193039     0.15300
H580        H  0.63931235  0.32360074  0.01728466     0.15900
C581        C  0.52179168  0.45359078  0.26891956    -0.10600
C582        C  0.53838625  0.48635735  0.27085970    -0.12100
C583        C  0.93257692  0.48587300  0.30071351    -0.13700
C584        C  0.89931050  0.46220322  0.30083737    -0.28900
H585        H  0.93081618  0.51761559  0.29105630     0.15300
H586        H  0.90281967  0.43029116  0.30893971     0.15900
C587        C  0.03101740  0.39228083  0.27636027    -0.13700
C588        C  0.05288584  0.36210299  0.29689873    -0.28900
H589        H  0.01309274  0.38718413  0.24218723     0.15300
H590        H  0.61229770  0.33732772  0.24650698     0.15900
C591        C  0.79199121  0.23413281  0.01227123    -0.10600
C592        C  0.77198631  0.26149220  0.02624484    -0.12100
C593        C  0.90294267  0.20706610  0.55315158    -0.13700
C594        C  0.86890484  0.22880505  0.55236727    -0.28900
H595        H  0.90109969  0.17550294  0.56407408     0.15300
H596        H  0.88622910  0.25740141  0.00522541     0.15900
C597        C  0.76365818  0.14587310  0.99225229    -0.13700
C598        C  0.73956257  0.12251031  0.96356806    -0.28900
H599        H  0.76841904  0.13831385  0.03161209     0.15300
H600        H  0.80955519  0.11993266  0.50778096     0.15900
N601        N  0.79677318  0.20396368  0.54348047    -0.00800
C602        C  0.77797497  0.17158573  0.56399552     0.01800
C603        C  0.81994535  0.15450222  0.93595077    -0.21100
C604        C  0.85526978  0.17591738  0.93928865    -0.21300
C605        C  0.85102543  0.20493316  0.97462149     0.01700
H606        H  0.79391609  0.13166829  0.62819647     0.15500
H607        H  0.88246851  0.16856492  0.92142957     0.15600
N608        N  0.01911176  0.46304825  0.78453696    -0.00800
C609        C  0.99027405  0.47815471  0.81190425     0.01800
C610        C  0.99009935  0.45755751  0.85730118    -0.21100
C611        C  0.01764464  0.42736185  0.85560313    -0.21300
C612        C  0.03396580  0.43044967  0.80930820     0.01700
H613        H  0.96731511  0.45901439  0.88444462     0.15500
H614        H  0.01967733  0.40186067  0.88123871     0.15600
N615        N  0.73318664  0.29496350  0.47816878    -0.00800
C616        C  0.71149249  0.29980620  0.04797923     0.01800
C617        C  0.69111659  0.32346507  0.42058814    -0.21100
C618        C  0.72557299  0.34638421  0.42349637    -0.21300
C619        C  0.75052563  0.32908980  0.46027531     0.01700
H620        H  0.66406934  0.33077891  0.39863519     0.15500
H621        H  0.72951382  0.37565055  0.40592205     0.15600
O622        O  0.85556249  0.53058997  0.79985614    -0.70200
O623        O  0.67797772  0.03566504  0.72403815    -0.71200
O624        O  0.73188351  0.02710335  0.80901145    -0.59800
O625        O  0.74151514  0.02153923  0.66105280    -0.68200
O626        O  0.80844304  0.45440373  0.71899200    -0.67800
O627        O  0.81011365  0.45010489  0.86964829    -0.59000
O628        O  0.75084437  0.43811445  0.79390497    -0.71500
O629        O  0.86856725  0.46559762  0.79686721    -0.70300
Cu630      Cu  0.73689505  0.02666155  0.73481546     1.04600
Cu631      Cu  0.81013374  0.44981056  0.79442179     1.04300
C632        C  0.88067869  0.50199182  0.80108404     0.96000
C633        C  0.65208776  0.00710606  0.72079999     0.95100
C634        C  0.80194663  0.48187856  0.89264327     0.87300
C635        C  0.80094475  0.48771222  0.69607637     0.93500
O636        O  0.76520433  0.46832576  0.96435812    -0.70200
O637        O  0.76573723  0.50190177  0.61913316    -0.71200
O638        O  0.72721990  0.06214822  0.49441519    -0.59800
O639        O  0.74713118  0.44659223  0.54107612    -0.68200
O640        O  0.81071346  0.43058674  0.53315582    -0.67800
O641        O  0.79130577  0.04530989  0.49862260    -0.59000
O642        O  0.82837757  0.48098673  0.61674051    -0.71500
O643        O  0.82669638  0.49420494  0.97478306    -0.70300
Cu644      Cu  0.75915848  0.50600690  0.54425092     1.04400
Cu645      Cu  0.82757976  0.48858857  0.54192600     1.04300
C646        C  0.79808774  0.48068583  0.94649889     0.96000
C647        C  0.79820393  0.48993823  0.64144508     0.95100
C648        C  0.76432304  0.07196387  0.50022913     0.87300
C649        C  0.77370710  0.42040055  0.53397728     0.93500
N650        N  0.50990958  0.01443619  0.71932463    -0.00800
C651        C  0.49156906  0.04724465  0.69799414     0.01800
C652        C  0.50405220  0.05341210  0.65001277    -0.21100
C653        C  0.53499884  0.02785326  0.64444659    -0.21300
C654        C  0.53919833  0.00571909  0.68837539     0.01700
H655        H  0.49808914  0.07962429  0.62640366     0.15500
H656        H  0.55623976  0.03000474  0.61533353     0.15600
O657        O  0.48825052  0.17106063  0.74177434    -0.70200
O658        O  0.01759036  0.30946515  0.78545871    -0.71200
O659        O  0.00217156  0.25438196  0.70741285    -0.59800
O660        O  0.00601453  0.24776685  0.85627111    -0.68200
O661        O  0.56286445  0.23227262  0.81373296    -0.67800
O662        O  0.55519775  0.22607314  0.66449785    -0.59000
O663        O  0.56223798  0.29017979  0.73336688    -0.71500
O664        O  0.55464065  0.16862844  0.74425738    -0.70300
Cu665      Cu  0.00195541  0.25082095  0.78152633     1.04600
Cu666      Cu  0.56108153  0.22910306  0.73901597     1.04300
C667        C  0.52042338  0.15069280  0.74329780     0.96000
C668        C  0.05419257  0.32125682  0.79050193     0.95100
C669        C  0.52114647  0.22888224  0.64110404     0.87300
C670        C  0.53079301  0.23439906  0.83736930     0.93500
O671        O  0.96752201  0.25779706  0.02221609    -0.70200
O672        O  0.57134752  0.29232798  0.99520482    -0.71200
O673        O  0.51879711  0.26812442  0.91174326    -0.59800
O674        O  0.50273772  0.25816384  0.56224071    -0.68200
O675        O  0.53411148  0.19984671  0.56399385    -0.67800
O676        O  0.54731038  0.20832908  0.91807675    -0.59000
O677        O  0.59864909  0.23214948  0.00213228    -0.71500
O678        O  0.98982450  0.19541354  0.02781209    -0.70300
Cu679      Cu  0.51407865  0.27138261  0.98607893     1.04600
Cu680      Cu  0.54275544  0.20662465  0.99203764     1.04300
C681        C  0.96079078  0.22003608  0.02145239     0.96000
C682        C  0.60233020  0.27041361  0.00284399     0.95100
C683        C  0.53301474  0.23740204  0.89156557     0.87300
C684        C  0.51910615  0.22889492  0.58659038     0.93500
C685        C  0.51918131  0.10617865  0.74065752    -0.13700
C686        C  0.48619382  0.08468611  0.72583341    -0.28900
H687        H  0.54803793  0.09145272  0.74183029     0.15300
H688        H  0.45755160  0.09955370  0.72081750     0.15900
C689        C  0.61010143  0.01763853  0.70835248    -0.13700
C690        C  0.57897434  0.99144366  0.70711148    -0.28900
H691        H  0.67932849  0.43909916  0.83991842     0.15300
H692        H  0.58258863  0.96046169  0.71963849     0.15900
C693        C  0.77727729  0.35575025  0.49064376    -0.13700
C694        C  0.76003996  0.37886234  0.52384382    -0.28900
H695        H  0.83308051  0.30801673  0.06970917     0.15300
H696        H  0.72980774  0.37101631  0.53434453     0.15900
C697        C  0.67754155  0.27425757  0.02663975    -0.13700
C698        C  0.64139597  0.29120968  0.01507083    -0.28900
H699        H  0.68163375  0.24231338  0.02231974     0.15300
H700        H  0.62347777  0.31774084  0.47062505     0.15900
C701        C  0.53564439  0.46187506  0.74131051    -0.10600
C702        C  0.55909763  0.48249005  0.76568834    -0.12100
C703        C  0.95185766  0.49168030  0.78750929    -0.13700
C704        C  0.92377418  0.50997454  0.81248525    -0.28900
H705        H  0.94342442  0.47883512  0.75162579     0.15300
H706        H  0.93200747  0.52409954  0.84761112     0.15900
C707        C  0.04333461  0.39381336  0.78222194    -0.13700
C708        C  0.06320048  0.36314502  0.80435699    -0.28900
H709        H  0.02702436  0.38911919  0.74679393     0.15300
H710        H  0.50871766  0.36799761  0.75704226     0.15900
C711        C  0.77496703  0.23558405  0.51944737    -0.10600
C712        C  0.75488261  0.26302052  0.50164479    -0.12100
C713        C  0.92001410  0.20358749  0.00985726    -0.13700
C714        C  0.88655508  0.22531720  0.99922761    -0.28900
H715        H  0.91827311  0.17124924  0.00545703     0.15300
H716        H  0.86856939  0.25968568  0.53864567     0.15900
C717        C  0.75586512  0.14064744  0.53411396    -0.13700
C718        C  0.77768710  0.11367752  0.51086309    -0.28900
H719        H  0.72485897  0.13385789  0.54183851     0.15300
H720        H  0.73458057  0.13054857  0.92437401     0.15900
N721        N  0.77667622  0.69728042  0.97366545    -0.00800
C722        C  0.76006665  0.66002430  0.96869265     0.01800
C723        C  0.85013705  0.69646238  0.59787691    -0.21100
C724        C  0.87131385  0.72996653  0.58347738    -0.21300
C725        C  0.85412080  0.74301980  0.53828632     0.01700
H726        H  0.76205592  0.61514464  0.90967845     0.15500
H727        H  0.89997557  0.73965418  0.60000909     0.15600
N728        N  0.94724471  0.95869759  0.16753275    -0.00800
C729        C  0.90777433  0.96532191  0.15708699     0.01800
C730        C  0.89425777  0.94196347  0.11764733    -0.21100
C731        C  0.92619488  0.91970525  0.10447232    -0.21300
C732        C  0.95818483  0.92960731  0.13665404     0.01700
H733        H  0.86358739  0.93865530  0.10318317     0.15500
H734        H  0.92462403  0.89503988  0.07891803     0.15600
N735        N  0.69658400  0.78341511  0.96907090    -0.00800
C736        C  0.69188696  0.74842248  0.43799635     0.01800
C737        C  0.64771504  0.79427824  0.90978313    -0.21100
C738        C  0.67556709  0.82461808  0.90598184    -0.21300
C739        C  0.70490403  0.81784169  0.94328476     0.01700
H740        H  0.61858454  0.79300954  0.89030290     0.15500
H741        H  0.67183769  0.85172493  0.88335906     0.15600
O742        O  0.80682220  0.01679288  0.22708277    -0.70200
O743        O  0.73269177  0.54430097  0.28806872    -0.71200
O744        O  0.79401910  0.53287014  0.36421033    -0.59800
O745        O  0.78882651  0.52516126  0.21497405    -0.68200
O746        O  0.71634964  0.97641770  0.16366915    -0.67800
O747        O  0.73467093  0.97321402  0.31216571    -0.59000
O748        O  0.67006293  0.99550539  0.24610667    -0.71500
O749        O  0.78156118  0.95478332  0.22917729    -0.70300
Cu750      Cu  0.79168020  0.53126540  0.28925346     1.04600
Cu751      Cu  0.72495082  0.97280196  0.23799381     1.04300
C752        C  0.81118673  0.97901598  0.22334357     0.96000
C753        C  0.70467277  0.51785258  0.29176020     0.95100
C754        C  0.74891940  0.00381838  0.33500622     0.87300
C755        C  0.72734403  0.00734290  0.13872910     0.93500
O756        O  0.71676531  0.01037334  0.41030846    -0.70200
O757        O  0.69187712  0.00997048  0.05959230    -0.71200
O758        O  0.73484645  0.52604732  0.02758306    -0.59800
O759        O  0.68306349  0.94575051  0.99170272    -0.68200
O760        O  0.74872630  0.93671867  0.99098057    -0.67800
O761        O  0.79570002  0.55361062  0.03550823    -0.59000
O762        O  0.75753149  0.99982576  0.06220798    -0.71500
O763        O  0.78079557  0.99307620  0.41568009    -0.70300
Cu764      Cu  0.68806984  0.00564755  0.98446520     1.04400
Cu765      Cu  0.75860508  0.99705143  0.98795175     1.04300
C766        C  0.74935217  0.00314893  0.38957895     0.96000
C767        C  0.72534581  0.00606659  0.08428857     0.95100
C768        C  0.75789457  0.55695014  0.02622116     0.87300
C769        C  0.71299923  0.92237247  0.99183462     0.93500
N770        N  0.55690363  0.52359250  0.28313062    -0.00800
C771        C  0.53475361  0.55504889  0.29660724     0.01800
C772        C  0.55409034  0.57440874  0.33629437    -0.21100
C773        C  0.59017457  0.55621733  0.34522738    -0.21300
C774        C  0.59169544  0.52573504  0.31144847     0.01700
H775        H  0.54601721  0.60277339  0.35158373     0.15500
H776        H  0.61435196  0.56677345  0.37011266     0.15600
O777        O  0.46057128  0.67347089  0.26721112    -0.70200
O778        O  0.96246559  0.81282164  0.20042103    -0.71200
O779        O  0.95998852  0.74777248  0.13228544    -0.59800
O780        O  0.97368832  0.75819040  0.28232306    -0.68200
O781        O  0.54122606  0.72093574  0.33431939    -0.67800
O782        O  0.52906144  0.72605798  0.18445412    -0.59000
O783        O  0.54482460  0.78439506  0.26160140    -0.71500
O784        O  0.52546786  0.66430274  0.25834427    -0.70300
Cu785      Cu  0.96427125  0.75304939  0.20792186     1.04600
Cu786      Cu  0.53741576  0.72375253  0.25917747     1.04300
C787        C  0.49026733  0.65001547  0.26472281     0.96000
C788        C  0.99351956  0.83495478  0.19490562     0.95100
C789        C  0.49437271  0.72939930  0.16263810     0.87300
C790        C  0.51082184  0.72684450  0.36006321     0.93500
O791        O  0.95989565  0.77868714  0.46402777    -0.70200
O792        O  0.57812609  0.75816169  0.51234411    -0.71200
O793        O  0.51165747  0.75515355  0.44086836    -0.59800
O794        O  0.47737914  0.75725378  0.08172428    -0.68200
O795        O  0.50216499  0.69582228  0.08719521    -0.67800
O796        O  0.52230297  0.68983199  0.43571725    -0.59000
O797        O  0.58701438  0.69249062  0.50837626    -0.71500
O798        O  0.96653198  0.71312596  0.45535299    -0.70300
Cu799      Cu  0.51837748  0.75283568  0.51634741     1.04600
Cu800      Cu  0.52665614  0.68256413  0.51043259     1.04300
C801        C  0.94454951  0.74327971  0.46273304     0.96000
C802        C  0.60128988  0.72838222  0.50858315     0.95100
C803        C  0.51513035  0.72391767  0.41474753     0.87300
C804        C  0.49065173  0.72740142  0.10801099     0.93500
C805        C  0.48502840  0.60660519  0.27586012    -0.13700
C806        C  0.51088319  0.57978059  0.25988298    -0.28900
H807        H  0.46919272  0.59936753  0.30933862     0.15300
H808        H  0.52513364  0.58609605  0.22502367     0.15900
C809        C  0.66318302  0.53172900  0.29589281    -0.13700
C810        C  0.63024544  0.50773100  0.29863263    -0.28900
H811        H  0.62699446  0.08344248  0.26104641     0.15300
H812        H  0.63170623  0.47575836  0.29224692     0.15900
C813        C  0.72627374  0.85287936  0.96555344    -0.13700
C814        C  0.70454551  0.87873142  0.99057231    -0.28900
H815        H  0.77059647  0.84661608  0.47013695     0.15300
H816        H  0.67476342  0.86915621  0.00107589     0.15900
C817        C  0.66466681  0.72137604  0.46573903    -0.13700
C818        C  0.64438047  0.73730606  0.50242024    -0.28900
H819        H  0.65135757  0.69604681  0.44587422     0.15300
H820        H  0.61254184  0.79395911  0.01381532     0.15900
C821        C  0.48267778  0.97751437  0.24337058    -0.10600
C822        C  0.50057190  0.00956849  0.24345955    -0.12100
C823        C  0.87986934  0.98464730  0.19019937    -0.13700
C824        C  0.84925869  0.96239817  0.20777344    -0.28900
H825        H  0.88113043  0.01699405  0.19406762     0.15300
H826        H  0.84952413  0.93005627  0.20323947     0.15900
C827        C  0.98948423  0.89944684  0.14893875    -0.13700
C828        C  0.98783445  0.87879410  0.19230319    -0.28900
H829        H  0.00297301  0.88531290  0.11794837     0.15300
H830        H  0.53820565  0.85872317  0.30533461     0.15900
C831        C  0.75144958  0.72921873  0.98449065    -0.10600
C832        C  0.72690975  0.75577195  0.98311961    -0.12100
C833        C  0.90200996  0.73562672  0.47403918    -0.13700
C834        C  0.88117885  0.76078615  0.50130635    -0.28900
H835        H  0.89121893  0.70479692  0.47056819     0.15300
H836        H  0.84109374  0.75552763  0.94636579     0.15900
C837        C  0.76122636  0.63054802  0.01098575    -0.13700
C838        C  0.74089907  0.59550095  0.00747975    -0.28900
H839        H  0.78608185  0.63335903  0.03837386     0.15300
H840        H  0.85723986  0.62107568  0.56901195     0.15900
N841        N  0.82140155  0.71991661  0.52603747    -0.00800
C842        C  0.82027811  0.69008134  0.56122037     0.01800
C843        C  0.76739295  0.64553388  0.92209238    -0.21100
C844        C  0.79317038  0.67229520  0.90061323    -0.21300
C845        C  0.79997263  0.70275857  0.93416581     0.01700
H846        H  0.85876127  0.67619973  0.62844500     0.15500
H847        H  0.81035044  0.66660372  0.86847532     0.15600
N848        N  0.93467683  0.95070781  0.70606912    -0.00800
C849        C  0.89935528  0.96573257  0.68823385     0.01800
C850        C  0.88454803  0.94504423  0.64735084    -0.21100
C851        C  0.91134029  0.91548151  0.63997668    -0.21300
C852        C  0.94147533  0.91879310  0.67714308     0.01700
H853        H  0.85541583  0.94840305  0.62834742     0.15500
H854        H  0.90727498  0.89183112  0.61318888     0.15600
N855        N  0.72232070  0.77018933  0.46001873    -0.00800
C856        C  0.66107033  0.76974704  0.94896992     0.01800
C857        C  0.67550330  0.76970788  0.39739614    -0.21100
C858        C  0.69468111  0.80641024  0.39630912    -0.21300
C859        C  0.72276881  0.80647812  0.43591559     0.01700
H860        H  0.64827534  0.76207396  0.37592236     0.15500
H861        H  0.68596643  0.83181716  0.37262883     0.15600
O862        O  0.79479511  0.01330196  0.74469969    -0.70200
O863        O  0.73705645  0.50312698  0.79186010    -0.71200
O864        O  0.79581569  0.51502291  0.86908139    -0.59800
O865        O  0.79515889  0.51944418  0.72021727    -0.68200
O866        O  0.72787298  0.95608706  0.66386925    -0.67800
O867        O  0.71578375  0.96216917  0.81235963    -0.59000
O868        O  0.66276038  0.97055313  0.72624577    -0.71500
O869        O  0.78021316  0.94809388  0.75005617    -0.70300
Cu870      Cu  0.79557035  0.51933012  0.79484116     1.04600
Cu871      Cu  0.72111658  0.95688333  0.73845130     1.04300
C872        C  0.80590428  0.97690577  0.74912658     0.96000
C873        C  0.72556697  0.46635291  0.79474414     0.95100
C874        C  0.72270224  0.99548641  0.83393698     0.87300
C875        C  0.73673003  0.98803977  0.63927064     0.93500
O876        O  0.68923676  0.00063946  0.90964334    -0.70200
O877        O  0.70861931  0.99616275  0.55765954    -0.71200
O878        O  0.77547991  0.56469441  0.54715146    -0.59800
O879        O  0.69964801  0.94438820  0.47410004    -0.68200
O880        O  0.76371920  0.92772467  0.48196736    -0.67800
O881        O  0.83955336  0.54781135  0.55023694    -0.59000
O882        O  0.77310277  0.98079560  0.56571476    -0.71500
O883        O  0.75555390  0.99537219  0.91349581    -0.70300
Cu884      Cu  0.71085769  0.00370930  0.48386798     1.04400
Cu885      Cu  0.77953744  0.98621958  0.49086329     1.04300
C886        C  0.72228336  0.99714069  0.88819804     0.96000
C887        C  0.73960854  0.98740814  0.58504279     0.95100
C888        C  0.81257565  0.57462130  0.55103267     0.87300
C889        C  0.72692388  0.91781250  0.47375372     0.93500
N890        N  0.58553457  0.50515640  0.79685224    -0.00800
C891        C  0.57469393  0.53617407  0.82449195     0.01800
C892        C  0.60169200  0.54032294  0.86484044    -0.21100
C893        C  0.63062215  0.51195698  0.86027719    -0.21300
C894        C  0.62078234  0.49153132  0.81693400     0.01700
H895        H  0.60317032  0.56462629  0.89091979     0.15500
H896        H  0.65900973  0.51114733  0.88151201     0.15600
O897        O  0.50833435  0.64293070  0.77236703    -0.70200
O898        O  0.95746242  0.77585991  0.69129359    -0.71200
O899        O  0.99487514  0.72447161  0.62476528    -0.59800
O900        O  0.97682461  0.72094781  0.77197747    -0.68200
O901        O  0.52815121  0.73497312  0.84036050    -0.67800
O902        O  0.54938152  0.72555396  0.69506129    -0.59000
O903        O  0.51212975  0.78232976  0.75257823    -0.71500
O904        O  0.56568213  0.67686061  0.78377997    -0.70300
Cu905      Cu  0.98391284  0.72180409  0.69774884     1.04600
Cu906      Cu  0.54094499  0.73084537  0.76838558     1.04300
C907        C  0.54577526  0.64372553  0.78437908     0.96000
C908        C  0.97625855  0.80948878  0.69575771     0.95100
C909        C  0.52353280  0.70793698  0.66620033     0.87300
C910        C  0.49661943  0.71908571  0.85785725     0.93500
O911        O  0.92245225  0.75480814  0.94341231    -0.70200
O912        O  0.53759920  0.77326385  0.01193569    -0.71200
O913        O  0.48343197  0.75371845  0.93164169    -0.59800
O914        O  0.52481409  0.74565863  0.59080272    -0.68200
O915        O  0.52951588  0.67948564  0.58607064    -0.67800
O916        O  0.49724029  0.68877728  0.93811118    -0.59000
O917        O  0.55727108  0.70998146  0.01081032    -0.71500
O918        O  0.94225311  0.69165633  0.95206504    -0.70300
Cu919      Cu  0.47934804  0.75780497  0.00628770     1.04600
Cu920      Cu  0.49993781  0.69010970  0.01275527     1.04300
C921        C  0.91431118  0.71720727  0.94549432     0.96000
C922        C  0.56544667  0.74758440  0.01038812     0.95100
C923        C  0.49137586  0.72054854  0.91154332     0.87300
C924        C  0.52708044  0.71099067  0.61194603     0.93500
C925        C  0.56690153  0.60697632  0.80128128    -0.13700
C926        C  0.55005819  0.56994305  0.80406322    -0.28900
H927        H  0.59820460  0.61098382  0.81348104     0.15300
H928        H  0.51964567  0.56429273  0.78950226     0.15900
C929        C  0.68370345  0.45681886  0.80612526    -0.13700
C930        C  0.65319802  0.47821701  0.78590614    -0.28900
H931        H  0.60467900  0.04887885  0.69788301     0.15300
H932        H  0.65721112  0.49500956  0.75133185     0.15900
C933        C  0.73925254  0.84451893  0.45763358    -0.13700
C934        C  0.71464264  0.87620187  0.46079460    -0.28900
H935        H  0.75446524  0.86264159  0.95047264     0.15300
H936        H  0.68300162  0.87200186  0.45044566     0.15900
C937        C  0.63242595  0.74430942  0.97604765    -0.13700
C938        C  0.60665645  0.76273403  0.00455333    -0.28900
H939        H  0.62530433  0.71459259  0.96207643     0.15300
H940        H  0.65551369  0.76547392  0.51785959     0.15900
C941        C  0.46295476  0.95232453  0.73510558    -0.10600
C942        C  0.48540796  0.98144737  0.73353305    -0.12100
C943        C  0.87232550  0.98848750  0.71795164    -0.13700
C944        C  0.84848773  0.96714654  0.74786842    -0.28900
H945        H  0.86248307  0.01731146  0.70257720     0.15300
H946        H  0.85673931  0.93660291  0.75868861     0.15900
C947        C  0.96796809  0.88459078  0.69188718    -0.13700
C948        C  0.95331727  0.84666377  0.68717473    -0.28900
H949        H  0.99819443  0.89024235  0.70707315     0.15300
H950        H  0.42120768  0.81424894  0.71712222     0.15900
C951        C  0.78643070  0.73634193  0.50223625    -0.10600
C952        C  0.75638457  0.75230559  0.48421828    -0.12100
C953        C  0.87291431  0.70156638  0.93918086    -0.13700
C954        C  0.83947385  0.72363871  0.93902856    -0.28900
H955        H  0.86987321  0.66921650  0.93546456     0.15300
H956        H  0.89353568  0.79048688  0.50887907     0.15900
C957        C  0.80228630  0.64950881  0.55205953    -0.13700
C958        C  0.82567516  0.61680931  0.55834296    -0.28900
H959        H  0.77148508  0.64666933  0.53756526     0.15300
H960        H  0.71515390  0.59348589  0.98124608     0.15900
loop_ 
_geom_bond_atom_site_label_1 
_geom_bond_atom_site_label_2 
_geom_bond_distance 
_geom_bond_site_symmetry_2 
_ccdc_geom_bond_type 
N1            C2   1.356       .  A
N1          C125   1.360       .  A
N1          C111   1.415   1_556  S
C2          C117   1.481   1_556  S
C2          C123   1.385       .  A
C3            C4   1.366       .  A
C3          C122   1.384       .  A
C3          H126   1.082       .  S
C4            C5   1.385       .  A
C4            H7   1.082       .  S
C5          N121   1.359       .  A
C5          C114   1.488       .  S
H6          C123   1.083       .  S
N8           C12   1.359       .  A
N8            C9   1.362       .  A
N8          C581   1.418       .  S
C9          C103   1.492       .  S
C9           C10   1.387       .  A
C10          C11   1.369       .  A
C10          H13   1.082       .  S
C11          C12   1.381       .  A
C11          H14   1.081       .  S
C12         C107   1.487       .  S
N15          C19   1.358       .  A
N15         C136   1.364       .  A
N15         C112   1.416       .  S
C16         N135   1.359       .  A
C16          C97   1.487       .  S
C16         C137   1.381       .  A
C17          C18   1.373       .  A
C17         C136   1.389       .  A
C17          H20   1.082       .  S
C18          C19   1.381       .  A
C18          H21   1.082       .  S
C19          C93   1.488       .  S
O22          C32   1.275       .  A
O22        Cu270   2.007       .  S
O23          C33   1.280   1_545  A
O23         Cu30   2.018       .  S
O24         C274   1.276   1_545  A
O24         Cu30   2.004       .  S
O25         C275   1.276   1_545  A
O25         Cu30   2.008       .  S
O26          C35   1.278       .  A
O26         Cu31   2.022       .  S
O27          C34   1.277       .  A
O27         Cu31   2.013       .  S
O28         C273   1.278       .  A
O28         Cu31   2.022       .  S
O29          C32   1.283       .  A
O29         Cu31   2.033       .  S
Cu30        O262   2.026       .  S
Cu30       Cu271   2.376   1_545  S
Cu31       Cu270   2.376       .  S
C32         C104   1.479       .  S
C33          C89   1.476       .  S
C33         O268   1.276       .  A
C34         O264   1.276       .  A
C34          C46   1.460       .  S
C35         O265   1.278       .  A
C35          C47   1.467       .  S
O36          C46   1.279       .  A
O36        Cu164   2.020       .  S
O37          C47   1.281       .  A
O37         Cu44   2.034       .  S
O38          C48   1.277       .  A
O38        Cu284   2.018   1_545  S
O39          C49   1.275       .  A
O39         Cu44   2.004       .  S
O40          C49   1.281       .  A
O40         Cu45   2.034       .  S
O41          C48   1.280       .  A
O41        Cu285   2.022   1_545  S
O42          C47   1.274       .  A
O42         Cu45   1.990       .  S
O43          C46   1.275       .  A
O43        Cu165   1.998       .  S
Cu44        O156   2.020   1_554  S
Cu44        O278   2.020       .  S
Cu44        Cu45   2.373       .  S
Cu45        O281   2.013       .  S
Cu45        O163   2.010   1_554  S
C48         C118   1.478   1_554  S
C49          C94   1.488       .  S
N50          C54   1.350       .  A
N50          C51   1.353       .  A
N50         C342   1.410   1_455  S
C51          C86   1.484       .  S
C51          C52   1.386       .  A
C52          C53   1.376       .  A
C52          H55   1.083       .  S
C53          C54   1.383       .  A
C53          H56   1.083       .  S
C54          C90   1.480   1_545  S
O57          C67   1.279       .  A
O57        Cu545   2.033       .  S
O58          C68   1.276       .  A
O58         Cu65   2.008       .  S
O59         C549   1.278       .  A
O59         Cu65   2.015       .  S
O60         C550   1.279       .  A
O60         Cu65   2.020       .  S
O61          C70   1.278       .  A
O61         Cu66   2.009       .  S
O62          C69   1.277       .  A
O62         Cu66   2.007       .  S
O63         C548   1.278       .  A
O63         Cu66   2.025       .  S
O64          C67   1.278   1_455  A
O64         Cu66   2.007       .  S
Cu65        O537   2.027       .  S
Cu65       Cu546   2.370       .  S
Cu66       Cu545   2.373   1_455  S
C67          C85   1.478       .  S
C68         C108   1.490       .  S
C68         O543   1.280       .  A
C69         O539   1.278   1_455  A
C69          C84   1.463       .  S
C70         O540   1.277   1_455  A
C70          C83   1.464       .  S
O71          C81   1.276       .  A
O71        Cu559   2.012       .  S
O72          C82   1.282       .  A
O72         Cu79   2.029       .  S
O73          C83   1.277       .  A
O73         Cu79   2.015       .  S
O74          C84   1.278       .  A
O74        Cu199   2.017       .  S
O75          C84   1.276       .  A
O75        Cu200   2.008       .  S
O76          C83   1.277       .  A
O76         Cu80   2.009       .  S
O77          C82   1.276       .  A
O77         Cu80   2.012       .  S
O78          C81   1.280       .  A
O78        Cu560   2.015       .  S
Cu79        O551   2.034   1_455  S
Cu79        O194   2.017       .  S
Cu79        Cu80   2.375       .  S
Cu80        O195   2.010       .  S
Cu80        O558   2.030   1_455  S
C81         C113   1.474       .  S
C82          C98   1.479       .  S
C85          C86   1.343   1_655  D
C85          H87   1.086       .  S
C86          H88   1.087       .  S
C89          C90   1.339       .  D
C89         H331   1.087       .  S
C90          H92   1.087   1_565  S
H91         C329   1.087       .  S
C93          C94   1.357       .  D
C93         H215   1.086       .  S
C94          H96   1.086       .  S
H95         C213   1.086       .  S
C97          C98   1.353       .  D
C97          H99   1.086       .  S
C98         H220   1.088       .  S
H100        C218   1.086       .  S
C101        N488   1.414       .  S
C101        C102   1.216       .  T
C102        N290   1.414       .  S
C103        C104   1.355       .  D
C103        H105   1.086       .  S
C104        H106   1.085       .  S
C107        C108   1.359       .  D
C107        H109   1.086       .  S
C108        H590   1.086       .  S
H110        C588   1.087       .  S
C111        C112   1.217       .  T
C113        C114   1.352       .  D
C113        H115   1.086       .  S
C114        H236   1.086       .  S
H116        C234   1.086       .  S
C117        C118   1.343   1_554  D
C117        H119   1.087       .  S
C118        H240   1.087       .  S
H120        C238   1.087       .  S
N121        C122   1.356       .  A
N121        C231   1.414       .  S
C122        C237   1.479       .  S
C123        C124   1.372       .  A
C124        C125   1.384       .  A
C124        H127   1.082       .  S
C125        C234   1.493       .  S
N128        C132   1.355       .  A
N128        C129   1.351       .  A
N128        C701   1.409       .  S
C129        C223   1.479       .  S
C129        C130   1.381       .  A
C130        C131   1.377       .  A
C130        H133   1.083       .  S
C131        C132   1.383       .  A
C131        H134   1.083       .  S
C132        C227   1.481       .  S
N135        C139   1.360       .  A
N135        C232   1.414       .  S
C136        C217   1.500       .  S
C137        C138   1.367       .  A
C137        H140   1.083       .  S
C138        C139   1.383       .  A
C138        H141   1.083       .  S
C139        C213   1.481       .  S
O142        C152   1.276       .  A
O142       Cu390   2.004       .  S
O143        C153   1.276       .  A
O143       Cu150   1.996       .  S
O144        C394   1.277   1_545  A
O144       Cu150   2.010       .  S
O145        C395   1.278   1_545  A
O145       Cu150   2.011       .  S
O146        C155   1.273       .  A
O146       Cu151   1.988       .  S
O147        C154   1.275       .  A
O147       Cu151   2.007       .  S
O148        C393   1.279       .  A
O148       Cu151   2.025       .  S
O149        C152   1.282       .  A
O149       Cu151   2.033       .  S
Cu150       O382   1.980   1_545  S
Cu150      Cu391   2.378   1_545  S
Cu151      Cu390   2.373       .  S
C152        C224   1.481       .  S
C153        C209   1.468       .  S
C153        O388   1.278   1_545  A
C154        O384   1.280       .  A
C154        C166   1.468       .  S
C155        O385   1.278       .  A
C155        C167   1.453       .  S
O156        C166   1.280       .  A
O157        C167   1.276       .  A
O157       Cu164   2.001       .  S
O158        C168   1.277       .  A
O158       Cu404   2.018   1_545  S
O159        C169   1.276       .  A
O159       Cu164   1.998       .  S
O160        C169   1.281       .  A
O160       Cu165   2.040       .  S
O161        C168   1.280       .  A
O161       Cu405   2.011   1_545  S
O162        C167   1.276       .  A
O162       Cu165   2.004       .  S
O163        C166   1.276       .  A
Cu164       O398   2.009       .  S
Cu164      Cu165   2.377       .  S
Cu165       O401   2.022       .  S
C168        C238   1.478       .  S
C169        C214   1.477       .  S
N170        C174   1.351       .  A
N170        C171   1.364       .  A
N170        C462   1.412   1_455  S
C171        C206   1.488   1_455  S
C171        C172   1.386       .  A
C172        C173   1.367       .  A
C172        H175   1.083       .  S
C173        C174   1.379       .  A
C173        H176   1.082       .  S
C174        C210   1.475       .  S
O177        C187   1.282   1_655  A
O177       Cu665   2.052   1_655  S
O178        C188   1.276       .  A
O178       Cu185   1.997       .  S
O179        C669   1.278       .  A
O179       Cu185   2.019       .  S
O180        C670   1.278       .  A
O180       Cu185   2.008       .  S
O181        C190   1.277       .  A
O181       Cu186   2.012       .  S
O182        C189   1.280       .  A
O182       Cu186   2.032       .  S
O183        C668   1.277       .  A
O183       Cu186   2.017       .  S
O184        C187   1.276       .  A
O184       Cu186   2.002       .  S
Cu185       O657   2.031       .  S
Cu185      Cu666   2.374       .  S
Cu186      Cu665   2.375       .  S
C187        C205   1.484       .  S
C188        C228   1.473       .  S
C188        O663   1.280       .  A
C189        O659   1.274       .  A
C189        C204   1.464       .  S
C190        O660   1.277       .  A
C190        C203   1.462       .  S
O191        C201   1.275       .  A
O191       Cu679   2.012       .  S
O192        C202   1.282       .  A
O192       Cu199   2.029       .  S
O193        C203   1.279       .  A
O193       Cu199   2.015   1_556  S
O194        C204   1.278       .  A
O195        C204   1.277       .  A
O196        C203   1.275       .  A
O196       Cu200   2.006   1_556  S
O197        C202   1.278       .  A
O197       Cu200   2.033       .  S
O198        C201   1.284       .  A
O198       Cu680   2.042       .  S
Cu199       O671   2.014   1_455  S
Cu199      Cu200   2.375       .  S
Cu200       O678   2.034   1_455  S
C201        C233   1.483       .  S
C202        C218   1.486       .  S
C205        C206   1.348   1_455  D
C205        H207   1.088       .  S
C206        H208   1.087       .  S
C209        C210   1.343       .  D
C209        H451   1.088       .  S
C210        H212   1.086   1_545  S
H211        C449   1.088       .  S
C213        C214   1.345       .  D
C214        H216   1.088       .  S
C217        C218   1.358       .  D
C217        H219   1.085       .  S
C221        N608   1.409       .  S
C221        C222   1.211       .  T
C222        N410   1.409       .  S
C223        C224   1.351       .  D
C223        H225   1.086       .  S
C224        H226   1.088       .  S
C227        C228   1.344       .  D
C227        H229   1.087       .  S
C228        H710   1.088       .  S
H230        C708   1.086       .  S
C231        C232   1.215       .  T
C233        C234   1.357       .  D
C233        H235   1.086       .  S
C237        C238   1.342       .  D
C237        H239   1.086       .  S
N241        C365   1.352       .  A
N241        C242   1.357       .  A
N241        C351   1.411       .  S
C242        C357   1.482   1_556  S
C242        C363   1.390       .  A
C243        C362   1.382       .  A
C243        C244   1.375       .  A
C243        H366   1.083       .  S
C244        C245   1.382       .  A
C244        H247   1.083       .  S
C245        N361   1.353       .  A
C245        C354   1.480       .  S
H246        C363   1.083       .  S
N248        C252   1.359       .  A
N248        C249   1.355       .  A
N248        C821   1.414       .  S
C249        C343   1.480       .  S
C249        C250   1.379       .  A
C250        C251   1.370       .  A
C250        H253   1.083       .  S
C251        C252   1.387       .  A
C251        H254   1.083       .  S
C252        C347   1.485       .  S
N255        C259   1.358       .  A
N255        C376   1.354       .  A
N255        C352   1.411       .  S
C256        N375   1.356       .  A
C256        C337   1.488       .  S
C256        C377   1.386       .  A
C257        C376   1.381       .  A
C257        C258   1.367       .  A
C257        H260   1.083       .  S
C258        C259   1.383       .  A
C258        H261   1.083       .  S
C259        C333   1.477       .  S
O262        C272   1.278   1_545  A
O263        C273   1.279       .  A
O263       Cu270   2.008       .  S
O264       Cu270   2.006       .  S
O265       Cu270   2.004       .  S
O266        C275   1.277       .  A
O266       Cu271   2.011       .  S
O267        C274   1.277       .  A
O267       Cu271   2.010       .  S
O268       Cu271   2.013       .  S
O269        C272   1.278       .  A
O269       Cu271   2.015       .  S
C272        C344   1.476       .  S
C273        C329   1.475       .  S
C274        C286   1.456       .  S
C275        C287   1.459       .  S
O276        C286   1.278       .  A
O276       Cu404   2.013       .  S
O277        C287   1.277       .  A
O277       Cu284   2.010       .  S
O278        C288   1.277       .  A
O279        C289   1.277       .  A
O279       Cu284   2.006       .  S
O280        C289   1.279       .  A
O280       Cu285   2.027       .  S
O281        C288   1.280       .  A
O282        C287   1.276       .  A
O282       Cu285   2.009       .  S
O283        C286   1.275       .  A
O283       Cu405   2.001       .  S
Cu284       O396   2.012   1_554  S
Cu284      Cu285   2.370       .  S
Cu285       O403   2.011   1_554  S
C288        C358   1.477   1_554  S
C289        C334   1.476       .  S
N290        C294   1.359       .  A
N290        C291   1.357       .  A
C291        C326   1.475       .  S
C291        C292   1.382       .  A
C292        C293   1.366       .  A
C292        H295   1.083       .  S
C293        C294   1.384       .  A
C293        H296   1.083       .  S
C294        C330   1.489       .  S
O297        C307   1.275   1_655  A
O297       Cu785   2.004       .  S
O298        C308   1.278       .  A
O298       Cu305   2.011       .  S
O299        C789   1.279       .  A
O299       Cu305   2.028       .  S
O300        C790   1.279       .  A
O300       Cu305   2.030       .  S
O301        C310   1.277       .  A
O301       Cu306   2.016       .  S
O302        C309   1.276   1_455  A
O302       Cu306   2.008       .  S
O303        C788   1.281   1_455  A
O303       Cu306   2.044       .  S
O304        C307   1.282       .  A
O304       Cu306   2.027       .  S
Cu305       O777   2.026       .  S
Cu305      Cu786   2.371       .  S
Cu306      Cu785   2.375   1_455  S
C307        C325   1.476       .  S
C308        C348   1.480       .  S
C308        O783   1.279       .  A
C309        O779   1.281       .  A
C309        C324   1.473       .  S
C310        O780   1.278   1_455  A
C310        C323   1.467       .  S
O311        C321   1.277       .  A
O311       Cu799   2.012       .  S
O312        C322   1.280       .  A
O312       Cu319   2.019       .  S
O313        C323   1.277       .  A
O313       Cu319   2.023       .  S
O314        C324   1.277       .  A
O314       Cu439   2.021   1_554  S
O315        C324   1.280       .  A
O315       Cu440   2.030   1_654  S
O316        C323   1.278       .  A
O316       Cu320   2.015       .  S
O317        C322   1.279       .  A
O317       Cu320   2.036       .  S
O318        C321   1.280       .  A
O318       Cu800   2.025       .  S
Cu319       O791   2.028   1_455  S
Cu319       O434   2.014       .  S
Cu319      Cu320   2.372       .  S
Cu320       O435   2.022       .  S
Cu320       O798   2.019   1_455  S
C321        C353   1.478       .  S
C322        C338   1.484       .  S
C325        C326   1.338       .  D
C325        H327   1.087   1_455  S
C326        H328   1.086       .  S
C329        C330   1.351       .  D
C330        H332   1.086       .  S
C333        C334   1.346   1_556  D
C333        H455   1.087       .  S
C334        H336   1.088       .  S
H335        C453   1.087       .  S
C337        C338   1.352       .  D
C337        H339   1.085       .  S
C338        H460   1.088       .  S
H340        C458   1.088       .  S
C341        N728   1.411       .  S
C341        C342   1.212   1_565  T
C343        C344   1.342       .  D
C343        H345   1.087       .  S
C344        H346   1.086       .  S
C347        C348   1.346       .  D
C347        H349   1.087       .  S
C348        H830   1.087       .  S
H350        C828   1.088       .  S
C351        C352   1.213       .  T
C353        C354   1.349       .  D
C353        H355   1.087       .  S
C354        H476   1.086       .  S
H356        C474   1.086       .  S
C357        C358   1.344   1_554  D
C357        H359   1.087       .  S
C358        H480   1.087       .  S
H360        C478   1.087       .  S
N361        C362   1.352       .  A
N361        C471   1.412       .  S
C362        C477   1.478       .  S
C363        C364   1.370       .  A
C364        C365   1.377       .  A
C364        H367   1.082       .  S
C365        C474   1.474       .  S
N368        C372   1.359       .  A
N368        C369   1.354       .  A
N368        C941   1.416       .  S
C369        C463   1.471       .  S
C369        C370   1.380       .  A
C370        C371   1.363       .  A
C370        H373   1.083       .  S
C371        C372   1.387       .  A
C371        H374   1.083       .  S
C372        C467   1.485       .  S
N375        C379   1.353       .  A
N375        C472   1.412       .  S
C376        C457   1.478       .  S
C377        C378   1.375       .  A
C377        H380   1.083       .  S
C378        C379   1.380       .  A
C378        H381   1.083       .  S
C379        C453   1.483       .  S
O382        C392   1.273       .  A
O383        C393   1.278       .  A
O383       Cu390   2.008       .  S
O384       Cu390   2.023       .  S
O385       Cu390   2.016       .  S
O386        C395   1.276       .  A
O386       Cu391   2.007       .  S
O387        C394   1.277       .  A
O387       Cu391   2.012       .  S
O388       Cu391   2.014       .  S
O389        C392   1.281       .  A
O389       Cu391   2.023       .  S
C392        C464   1.469       .  S
C393        C449   1.476       .  S
C394        C406   1.462       .  S
C395        C407   1.460       .  S
O396        C406   1.277       .  A
O397        C407   1.278       .  A
O397       Cu404   2.016       .  S
O398        C408   1.277       .  A
O399        C409   1.277       .  A
O399       Cu404   2.008       .  S
O400        C409   1.280       .  A
O400       Cu405   2.029       .  S
O401        C408   1.280       .  A
O402        C407   1.276       .  A
O402       Cu405   2.000       .  S
O403        C406   1.277       .  A
Cu404      Cu405   2.375       .  S
C408        C478   1.477       .  S
C409        C454   1.478       .  S
N410        C414   1.355       .  A
N410        C411   1.354       .  A
C411        C446   1.483       .  S
C411        C412   1.385       .  A
C412        C413   1.373       .  A
C412        H415   1.082       .  S
C413        C414   1.383       .  A
C413        H416   1.083       .  S
C414        C450   1.479       .  S
O417        C427   1.277       .  A
O417       Cu905   2.013   1_455  S
O418        C428   1.280       .  A
O418       Cu425   2.012       .  S
O419        C909   1.280       .  A
O419       Cu425   2.025       .  S
O420        C910   1.278       .  A
O420       Cu425   2.022       .  S
O421        C430   1.279       .  A
O421       Cu426   2.024       .  S
O422        C429   1.278       .  A
O422       Cu426   2.026       .  S
O423        C908   1.276   1_455  A
O423       Cu426   2.012       .  S
O424        C427   1.279       .  A
O424       Cu426   2.015       .  S
Cu425       O897   2.011       .  S
Cu425      Cu906   2.376       .  S
Cu426      Cu905   2.376   1_455  S
C427        C445   1.474       .  S
C428        C468   1.471       .  S
C428        O903   1.276       .  A
C429        O899   1.278   1_455  A
C429        C444   1.468       .  S
C430        O900   1.277   1_455  A
C430        C443   1.470   1_455  S
O431        C441   1.277   1_556  A
O431       Cu919   2.009   1_556  S
O432        C442   1.279       .  A
O432       Cu439   2.014   1_455  S
O433        C443   1.278       .  A
O433       Cu439   2.020       .  S
O434        C444   1.277       .  A
O435        C444   1.279       .  A
O436        C443   1.279   1_455  A
O436       Cu440   2.025       .  S
O437        C442   1.276       .  A
O437       Cu440   2.003       .  S
O438        C441   1.279       .  A
O438       Cu920   2.017       .  S
Cu439       O911   2.026       .  S
Cu439      Cu440   2.375   1_655  S
Cu440       O918   2.001   1_455  S
C441        C473   1.473   1_554  S
C442        C458   1.471       .  S
C445        C446   1.349       .  D
C445        H447   1.088       .  S
C446        H448   1.086       .  S
C449        C450   1.347       .  D
C450        H452   1.086       .  S
C453        C454   1.348       .  D
C454        H456   1.087       .  S
C457        C458   1.348       .  D
C457        H459   1.086       .  S
C461        N848   1.412       .  S
C461        C462   1.214   1_565  T
C463        C464   1.349       .  D
C463        H465   1.086       .  S
C464        H466   1.088       .  S
C467        C468   1.353       .  D
C467        H469   1.085       .  S
C468        H950   1.087       .  S
H470        C948   1.087       .  S
C471        C472   1.214       .  T
C473        C474   1.346       .  D
C473        H475   1.088   1_556  S
C477        C478   1.349       .  D
C477        H479   1.086       .  S
N481        C605   1.361       .  A
N481        C482   1.354       .  A
N481        C591   1.415   1_556  S
C482        C597   1.477       .  S
C482        C603   1.383       .  A
C483        C602   1.383       .  A
C483        C484   1.370       .  A
C483        H606   1.083       .  S
C484        C485   1.384       .  A
C484        H487   1.083       .  S
C485        N601   1.361       .  A
C485        C594   1.497       .  S
H486        C603   1.083       .  S
N488        C492   1.358       .  A
N488        C489   1.359   1_455  A
C489        C583   1.488       .  S
C489        C490   1.382       .  A
C490        C491   1.367   1_655  A
C490        H493   1.083       .  S
C491        C492   1.385       .  A
C491        H494   1.083       .  S
C492        C587   1.481       .  S
N495        C499   1.361       .  A
N495        C616   1.366       .  A
N495        C592   1.416       .  S
C496        N615   1.359       .  A
C496        C577   1.491       .  S
C496        C617   1.385       .  A
C497        C616   1.388       .  A
C497        C498   1.374       .  A
C497        H500   1.082       .  S
C498        C499   1.381       .  A
C498        H501   1.082       .  S
C499        C573   1.493       .  S
O502        C512   1.278       .  A
O502       Cu750   2.024       .  S
O503        C513   1.278       .  A
O503       Cu510   2.008       .  S
O504        C754   1.279       .  A
O504       Cu510   2.031       .  S
O505        C755   1.279       .  A
O505       Cu510   2.024       .  S
O506        C515   1.277       .  A
O506       Cu511   2.019       .  S
O507        C514   1.278       .  A
O507       Cu511   2.017       .  S
O508        C753   1.276       .  A
O508       Cu511   2.015       .  S
O509        C512   1.280       .  A
O509       Cu511   2.021       .  S
Cu510       O742   2.014       .  S
Cu510      Cu751   2.376   1_545  S
Cu511      Cu750   2.375       .  S
C512        C584   1.480       .  S
C513        C569   1.473       .  S
C513        O748   1.277   1_545  A
C514        O744   1.276       .  A
C514        C526   1.464       .  S
C515        O745   1.278       .  A
C515        C527   1.466       .  S
O516        C526   1.278       .  A
O516       Cu644   2.018       .  S
O517        C527   1.281       .  A
O517       Cu524   2.037       .  S
O518        C528   1.276       .  A
O518       Cu764   2.014       .  S
O519        C529   1.272       .  A
O519       Cu524   1.998       .  S
O520        C529   1.283       .  A
O520       Cu525   2.040       .  S
O521        C528   1.279       .  A
O521       Cu765   2.014   1_545  S
O522        C527   1.274       .  A
O522       Cu525   1.991       .  S
O523        C526   1.277       .  A
O523       Cu645   2.012       .  S
Cu524       O636   2.017   1_554  S
Cu524       O758   2.013       .  S
Cu524      Cu525   2.371       .  S
Cu525       O761   2.029       .  S
Cu525       O643   2.003   1_554  S
C528        C598   1.470       .  S
C529        C574   1.490       .  S
N530        C534   1.356       .  A
N530        C531   1.358       .  A
N530        C822   1.415       .  S
C531        C566   1.483       .  S
C531        C532   1.382       .  A
C532        C533   1.370       .  A
C532        H535   1.082       .  S
C533        C534   1.386       .  A
C533        H536   1.082       .  S
C534        C570   1.485       .  S
O537        C547   1.279       .  A
O538        C548   1.279       .  A
O538       Cu545   2.011   1_455  S
O539       Cu545   2.016       .  S
O540       Cu545   2.019       .  S
O541        C550   1.275       .  A
O541       Cu546   1.998       .  S
O542        C549   1.275       .  A
O542       Cu546   1.991       .  S
O543       Cu546   2.033       .  S
O544        C547   1.278       .  A
O544       Cu546   2.019       .  S
C547        C565   1.492       .  S
C548        C588   1.477       .  S
C549        C564   1.460       .  S
C550        C563   1.465       .  S
O551        C561   1.278       .  A
O552        C562   1.282       .  A
O552       Cu559   2.028       .  S
O553        C563   1.277       .  A
O553       Cu559   2.011       .  S
O554        C564   1.277       .  A
O554       Cu679   2.012   1_554  S
O555        C564   1.276       .  A
O555       Cu680   1.995   1_554  S
O556        C563   1.278       .  A
O556       Cu560   2.009       .  S
O557        C562   1.276       .  A
O557       Cu560   2.014       .  S
O558        C561   1.282       .  A
Cu559       O674   2.014       .  S
Cu559      Cu560   2.376       .  S
Cu560       O675   2.012       .  S
C561        C593   1.487       .  S
C562        C578   1.480       .  S
C565        C566   1.358       .  D
C565        H567   1.086       .  S
C566        H568   1.086       .  S
C569        C570   1.349       .  D
C569        H811   1.087       .  S
C570        H572   1.086   1_545  S
H571        C809   1.087       .  S
C573        C574   1.360       .  D
C573        H695   1.086       .  S
C574        H576   1.087       .  S
H575        C693   1.086       .  S
C577        C578   1.355       .  D
C577        H579   1.085       .  S
C578        H700   1.087       .  S
H580        C698   1.086       .  S
C581        C582   1.218       .  T
C582        N770   1.416       .  S
C583        C584   1.352       .  D
C583        H585   1.085       .  S
C584        H586   1.088       .  S
C587        C588   1.345       .  D
C587        H589   1.087       .  S
C591        C592   1.217       .  T
C593        C594   1.357       .  D
C593        H595   1.087       .  S
C594        H716   1.085       .  S
H596        C714   1.085   1_554  S
C597        C598   1.340       .  D
C597        H599   1.087   1_556  S
C598        H720   1.087       .  S
H600        C718   1.088       .  S
N601        C602   1.359       .  A
N601        C711   1.416       .  S
C602        C717   1.486       .  S
C603        C604   1.369       .  A
C604        C605   1.385       .  A
C604        H607   1.083       .  S
C605        C714   1.492       .  S
N608        C612   1.350       .  A
N608        C609   1.351   1_455  A
C609        C703   1.484       .  S
C609        C610   1.387       .  A
C610        C611   1.378   1_655  A
C610        H613   1.083       .  S
C611        C612   1.384       .  A
C611        H614   1.083       .  S
C612        C707   1.482       .  S
N615        C619   1.357       .  A
N615        C712   1.416       .  S
C616        C697   1.506       .  S
C617        C618   1.371       .  A
C617        H620   1.083       .  S
C618        C619   1.383       .  A
C618        H621   1.083       .  S
C619        C693   1.480       .  S
O622        C632   1.279       .  A
O622       Cu870   2.031       .  S
O623        C633   1.277       .  A
O623       Cu630   2.002       .  S
O624        C874   1.277   1_545  A
O624       Cu630   2.010       .  S
O625        C875   1.277   1_545  A
O625       Cu630   2.008       .  S
O626        C635   1.279       .  A
O626       Cu631   2.028       .  S
O627        C634   1.279       .  A
O627       Cu631   2.023       .  S
O628        C873   1.276       .  A
O628       Cu631   2.012       .  S
O629        C632   1.278       .  A
O629       Cu631   2.012       .  S
Cu630       O862   1.995       .  S
Cu630      Cu871   2.377   1_545  S
Cu631      Cu870   2.376       .  S
C632        C704   1.478       .  S
C633        C689   1.472       .  S
C633        O868   1.278   1_545  A
C634        O864   1.275       .  A
C634        C646   1.460       .  S
C635        O865   1.276       .  A
C635        C647   1.467       .  S
O636        C646   1.279       .  A
O637        C647   1.278       .  A
O637       Cu644   2.016       .  S
O638        C648   1.280       .  A
O638       Cu884   2.037       .  S
O639        C649   1.279       .  A
O639       Cu644   2.017       .  S
O640        C649   1.278       .  A
O640       Cu645   2.021       .  S
O641        C648   1.279       .  A
O641       Cu885   2.016   1_545  S
O642        C647   1.277       .  A
O642       Cu645   2.020       .  S
O643        C646   1.275       .  A
Cu644       O878   2.024       .  S
Cu644      Cu645   2.372       .  S
Cu645       O881   2.023       .  S
C648        C718   1.483       .  S
C649        C694   1.478       .  S
N650        C654   1.355       .  A
N650        C651   1.363       .  A
N650        C942   1.417   1_545  S
C651        C686   1.488       .  S
C651        C652   1.385       .  A
C652        C653   1.366       .  A
C652        H655   1.083       .  S
C653        C654   1.380       .  A
C653        H656   1.083       .  S
C654        C690   1.480   1_545  S
O657        C667   1.279       .  A
O658        C668   1.280       .  A
O658       Cu665   2.019       .  S
O659       Cu665   1.994       .  S
O660       Cu665   2.008       .  S
O661        C670   1.276       .  A
O661       Cu666   2.012       .  S
O662        C669   1.276       .  A
O662       Cu666   2.008       .  S
O663       Cu666   2.038       .  S
O664        C667   1.281       .  A
O664       Cu666   2.026       .  S
C667        C685   1.487       .  S
C668        C708   1.476       .  S
C669        C684   1.464       .  S
C670        C683   1.461       .  S
O671        C681   1.275       .  A
O672        C682   1.282   1_556  A
O672       Cu679   2.031       .  S
O673        C683   1.279       .  A
O673       Cu679   2.018       .  S
O674        C684   1.277       .  A
O675        C684   1.277       .  A
O676        C683   1.275       .  A
O676       Cu680   2.001       .  S
O677        C682   1.280       .  A
O677       Cu680   2.047   1_554  S
O678        C681   1.283       .  A
Cu679      Cu680   2.375       .  S
C681        C713   1.481       .  S
C682        C698   1.493       .  S
C685        C686   1.353       .  D
C685        H687   1.088       .  S
C686        H688   1.086       .  S
C689        C690   1.346   1_545  D
C689        H931   1.088       .  S
C690        H692   1.085       .  S
H691        C929   1.087       .  S
C693        C694   1.349       .  D
C694        H696   1.088       .  S
C697        C698   1.360       .  D
C697        H699   1.085       .  S
C701        C702   1.212       .  T
C702        N890   1.410       .  S
C703        C704   1.343       .  D
C703        H705   1.087       .  S
C704        H706   1.086       .  S
C707        C708   1.340       .  D
C707        H709   1.087       .  S
C711        C712   1.218       .  T
C713        C714   1.357   1_554  D
C713        H715   1.087       .  S
C717        C718   1.350       .  D
C717        H719   1.086       .  S
N721        C845   1.355       .  A
N721        C722   1.358       .  A
N721        C831   1.413       .  S
C722        C837   1.485   1_556  S
C722        C843   1.387       .  A
C723        C842   1.385       .  A
C723        C724   1.371       .  A
C723        H846   1.082       .  S
C724        C725   1.382       .  A
C724        H727   1.083       .  S
C725        N841   1.358       .  A
C725        C834   1.483       .  S
H726        C843   1.083       .  S
N728        C732   1.357       .  A
N728        C729   1.355       .  A
C729        C823   1.485       .  S
C729        C730   1.383       .  A
C730        C731   1.375       .  A
C730        H733   1.083       .  S
C731        C732   1.382       .  A
C731        H734   1.083       .  S
C732        C827   1.482       .  S
N735        C739   1.359       .  A
N735        C856   1.355       .  A
N735        C832   1.412       .  S
C736        N855   1.359       .  A
C736        C817   1.485       .  S
C736        C857   1.383       .  A
C737        C856   1.379       .  A
C737        C738   1.368       .  A
C737        H740   1.083       .  S
C738        C739   1.384       .  A
C738        H741   1.083       .  S
C739        C813   1.481       .  S
O742        C752   1.277   1_545  A
O743        C753   1.281       .  A
O743       Cu750   2.023       .  S
O744       Cu750   2.015       .  S
O745       Cu750   2.009       .  S
O746        C755   1.275   1_565  A
O746       Cu751   2.006       .  S
O747        C754   1.276   1_565  A
O747       Cu751   2.005       .  S
O748       Cu751   2.019       .  S
O749        C752   1.280       .  A
O749       Cu751   2.020       .  S
C752        C824   1.478       .  S
C753        C809   1.478       .  S
C754        C766   1.466       .  S
C755        C767   1.463       .  S
O756        C766   1.276       .  A
O756       Cu884   2.004       .  S
O757        C767   1.279       .  A
O757       Cu764   2.026   1_554  S
O758        C768   1.277       .  A
O759        C769   1.278       .  A
O759       Cu764   2.006   1_565  S
O760        C769   1.279       .  A
O760       Cu765   2.033       .  S
O761        C768   1.281       .  A
O762        C767   1.276   1_565  A
O762       Cu765   2.003   1_554  S
O763        C766   1.279   1_565  A
O763       Cu885   2.031       .  S
Cu764       O876   2.025       .  S
Cu764      Cu765   2.375   1_545  S
Cu765       O883   2.001       .  S
C768        C838   1.481       .  S
C769        C814   1.478       .  S
N770        C774   1.359       .  A
N770        C771   1.359       .  A
C771        C806   1.482       .  S
C771        C772   1.386       .  A
C772        C773   1.366       .  A
C772        H775   1.083       .  S
C773        C774   1.382       .  A
C773        H776   1.083       .  S
C774        C810   1.489       .  S
O777        C787   1.278       .  A
O778        C788   1.276       .  A
O778       Cu785   1.999       .  S
O779       Cu785   2.043       .  S
O780       Cu785   2.020       .  S
O781        C790   1.277       .  A
O781       Cu786   2.018       .  S
O782        C789   1.278       .  A
O782       Cu786   2.014       .  S
O783       Cu786   2.034       .  S
O784        C787   1.279       .  A
O784       Cu786   2.015       .  S
C787        C805   1.480       .  S
C788        C828   1.476       .  S
C789        C804   1.471       .  S
C790        C803   1.471       .  S
O791        C801   1.279       .  A
O792        C802   1.277       .  A
O792       Cu799   2.009       .  S
O793        C803   1.279       .  A
O793       Cu799   2.030       .  S
O794        C804   1.279       .  A
O794       Cu919   2.032       .  S
O795        C804   1.277       .  A
O795       Cu920   2.012       .  S
O796        C803   1.277       .  A
O796       Cu800   2.016       .  S
O797        C802   1.281       .  A
O797       Cu800   2.041       .  S
O798        C801   1.279       .  A
Cu799       O914   2.012       .  S
Cu799      Cu800   2.373       .  S
Cu800       O915   2.031       .  S
C801        C833   1.485       .  S
C802        C818   1.482       .  S
C805        C806   1.345       .  D
C805        H807   1.087       .  S
C806        H808   1.087       .  S
C809        C810   1.354       .  D
C810        H812   1.086       .  S
C813        C814   1.348       .  D
C813        H935   1.086       .  S
C814        H816   1.088   1_556  S
H815        C933   1.085       .  S
C817        C818   1.348       .  D
C817        H819   1.087       .  S
C818        H940   1.088       .  S
H820        C938   1.088       .  S
C821        C822   1.216   1_565  T
C823        C824   1.351       .  D
C823        H825   1.085   1_565  S
C824        H826   1.088       .  S
C827        C828   1.343       .  D
C827        H829   1.087   1_655  S
C831        C832   1.215       .  T
C833        C834   1.350       .  D
C833        H835   1.088       .  S
C834        H956   1.086       .  S
H836        C954   1.085       .  S
C837        C838   1.344       .  D
C837        H839   1.087       .  S
C838        H960   1.087   1_554  S
H840        C958   1.087       .  S
N841        C842   1.358       .  A
N841        C951   1.416       .  S
C842        C957   1.492       .  S
C843        C844   1.368       .  A
C844        C845   1.382       .  A
C844        H847   1.083       .  S
C845        C954   1.483       .  S
N848        C852   1.361       .  A
N848        C849   1.351       .  A
C849        C943   1.467       .  S
C849        C850   1.378       .  A
C850        C851   1.366       .  A
C850        H853   1.083       .  S
C851        C852   1.388       .  A
C851        H854   1.082       .  S
C852        C947   1.489       .  S
N855        C859   1.359       .  A
N855        C952   1.416       .  S
C856        C937   1.476       .  S
C857        C858   1.372       .  A
C857        H860   1.083       .  S
C858        C859   1.384       .  A
C858        H861   1.083       .  S
C859        C933   1.494       .  S
O862        C872   1.276   1_545  A
O863        C873   1.280       .  A
O863       Cu870   2.018       .  S
O864       Cu870   1.997       .  S
O865       Cu870   2.006       .  S
O866        C875   1.279       .  A
O866       Cu871   2.030       .  S
O867        C874   1.277       .  A
O867       Cu871   2.016       .  S
O868       Cu871   2.018       .  S
O869        C872   1.278       .  A
O869       Cu871   2.009       .  S
C872        C944   1.467       .  S
C873        C929   1.474       .  S
C874        C886   1.462       .  S
C875        C887   1.466       .  S
O876        C886   1.279   1_545  A
O877        C887   1.274       .  A
O877       Cu884   1.999   1_565  S
O878        C888   1.277       .  A
O879        C889   1.282       .  A
O879       Cu884   2.027   1_565  S
O880        C889   1.277       .  A
O880       Cu885   2.028       .  S
O881        C888   1.281       .  A
O882        C887   1.281       .  A
O882       Cu885   2.038       .  S
O883        C886   1.275       .  A
Cu884      Cu885   2.374   1_545  S
C888        C958   1.480       .  S
C889        C934   1.484       .  S
N890        C894   1.352       .  A
N890        C891   1.352       .  A
C891        C926   1.484       .  S
C891        C892   1.384       .  A
C892        C893   1.375       .  A
C892        H895   1.083       .  S
C893        C894   1.386       .  A
C893        H896   1.083       .  S
C894        C930   1.479       .  S
O897        C907   1.276       .  A
O898        C908   1.281       .  A
O898       Cu905   2.020       .  S
O899       Cu905   2.013       .  S
O900       Cu905   2.021       .  S
O901        C910   1.277       .  A
O901       Cu906   2.011       .  S
O902        C909   1.277       .  A
O902       Cu906   2.017       .  S
O903       Cu906   2.008       .  S
O904        C907   1.280       .  A
O904       Cu906   2.018       .  S
C907        C925   1.475       .  S
C908        C948   1.475       .  S
C909        C924   1.470       .  S
C910        C923   1.465       .  S
O911        C921   1.279       .  A
O912        C922   1.277       .  A
O912       Cu919   2.004       .  S
O913        C923   1.279       .  A
O913       Cu919   2.026   1_556  S
O914        C924   1.278       .  A
O915        C924   1.279       .  A
O916        C923   1.276       .  A
O916       Cu920   2.006   1_556  S
O917        C922   1.278       .  A
O917       Cu920   2.019       .  S
O918        C921   1.277       .  A
Cu919      Cu920   2.370       .  S
C921        C953   1.473       .  S
C922        C938   1.473       .  S
C925        C926   1.350       .  D
C925        H927   1.087       .  S
C926        H928   1.086       .  S
C929        C930   1.339       .  D
C930        H932   1.087       .  S
C933        C934   1.356       .  D
C934        H936   1.087       .  S
C937        C938   1.345   1_556  D
C937        H939   1.086       .  S
C941        C942   1.218       .  T
C943        C944   1.344       .  D
C943        H945   1.086   1_565  S
C944        H946   1.088       .  S
C947        C948   1.354       .  D
C947        H949   1.085       .  S
C951        C952   1.218       .  T
C953        C954   1.347       .  D
C953        H955   1.088       .  S
C957        C958   1.354       .  D
C957        H959   1.086       .  S
