geometry optimzed in LAMMPS
_audit_creation_date              2020-12-01 
_audit_creation_method            'lammps2cif' 
_symmetry_space_group_name_H-M    'P1' 
_symmetry_Int_Tables_number       1 
_symmetry_cell_setting            triclinic 
loop_ 
_symmetry_equiv_pos_as_xyz 
  x,y,z 
_cell_length_a                    45.49382038 
_cell_length_b                    34.149290120170875 
_cell_length_c                    30.439458297546192 
_cell_angle_alpha                 90.56722202759761 
_cell_angle_beta                  90.07994306496707 
_cell_angle_gamma                 89.59098209333251 
loop_ 
_atom_site_label 
_atom_site_type_symbol 
_atom_site_fract_x 
_atom_site_fract_y 
_atom_site_fract_z 
_atom_site_charge 
O1          O  0.27493087  0.00137529  0.06072013    -0.73700
O2          O  0.27375405  0.00819737  0.93510790    -0.73800
O3          O  0.27419542  0.06087162  0.00288285    -0.73800
O4          O  0.27434486  0.94869715  0.99322944    -0.73900
O5          O  0.22537379  0.94929484  0.99411971    -0.73800
O6          O  0.22523152  0.06124009  0.00374598    -0.73800
O7          O  0.22470020  0.00826691  0.93610710    -0.73800
O8          O  0.22596083  0.00159515  0.06139042    -0.73800
Ni9        Ni  0.27607048  0.00480233  0.99789926     1.25400
Ni10       Ni  0.22360147  0.00517673  0.99883100     1.25400
C11         C  0.25058542  0.00073063  0.08180745     0.88400
C12         C  0.24900790  0.00848775  0.91497554     0.88400
C13         C  0.24970234  0.07956354  0.00576794     0.88400
C14         C  0.24979728  0.93047270  0.99191367     0.88600
O15         O  0.22687059  0.99824544  0.43482831    -0.73700
O16         O  0.22521574  0.99706062  0.56037331    -0.73800
O17         O  0.22828432  0.05355868  0.49853298    -0.73800
O18         O  0.22385860  0.94143819  0.49620629    -0.73900
O19         O  0.27270164  0.93755760  0.49919901    -0.73800
O20         O  0.27718221  0.04977272  0.49831027    -0.73800
O21         O  0.27404158  0.99514563  0.56184773    -0.73800
O22         O  0.27567509  0.99282304  0.43603779    -0.73800
Ni23       Ni  0.22433047  0.99766210  0.49751980     1.25400
Ni24       Ni  0.27664035  0.99360658  0.49899800     1.25400
C25         C  0.25150375  0.99582798  0.41463611     0.88400
C26         C  0.24935599  0.99668732  0.58206216     0.88400
C27         C  0.25344852  0.07021664  0.49788213     0.88400
C28         C  0.24755590  0.92089025  0.49698895     0.88600
C29         C  0.27685489  0.18349265  0.02296958     0.03800
C30         C  0.25033480  0.20411259  0.02816234    -0.12300
C31         C  0.22332001  0.18463220  0.02489847     0.01300
C32         C  0.22321566  0.14390343  0.01724093    -0.10900
C33         C  0.24974846  0.12271380  0.01254401     0.03800
C34         C  0.27650502  0.14297565  0.01533620    -0.10300
H35         H  0.25073491  0.23544005  0.03420626     0.09400
H36         H  0.20235659  0.12888489  0.01461501     0.06900
H37         H  0.29718712  0.12742892  0.01151025     0.06800
C38         C  0.28383634  0.17325353  0.48901419     0.03800
C39         C  0.28237017  0.13248904  0.49376497    -0.12300
C40         C  0.25507015  0.11350960  0.49538466     0.01300
C41         C  0.22918011  0.13609960  0.49280287    -0.10900
C42         C  0.23027766  0.17682262  0.48694969     0.03800
C43         C  0.25777424  0.19522638  0.48507895    -0.10300
H44         H  0.30264073  0.11567103  0.49605642     0.09400
H45         H  0.20796562  0.12200216  0.49465908     0.06900
H46         H  0.25895103  0.22659225  0.48038677     0.06800
C47         C  0.27538150  0.82431968  0.98414893     0.03800
C48         C  0.27574128  0.86537401  0.98788534    -0.12300
C49         C  0.24943914  0.88717723  0.98775665     0.01300
C50         C  0.22257496  0.86731830  0.98409785    -0.10900
C51         C  0.22170198  0.82626020  0.98184672     0.03800
C52         C  0.24825554  0.80497524  0.98133369    -0.10300
H53         H  0.29661508  0.88019289  0.99111262     0.09400
H54         H  0.20210025  0.88368963  0.98365092     0.06900
H55         H  0.24780869  0.77327966  0.97931132     0.06800
C56         C  0.21677667  0.81834888  0.48318566     0.03800
C57         C  0.24273263  0.79599006  0.47989803    -0.12300
C58         C  0.27039966  0.81345399  0.48581631     0.01300
C59         C  0.27153185  0.85421510  0.49376918    -0.10900
C60         C  0.24582350  0.87746159  0.49387285     0.03800
C61         C  0.21845618  0.85899837  0.48934510    -0.10300
H62         H  0.24119073  0.76491056  0.47301713     0.09400
H63         H  0.29264015  0.86796473  0.49902281     0.06900
H64         H  0.19829573  0.87608886  0.49084311     0.06800
C65         C  0.02629985  0.68313069  0.99265474     0.03800
C66         C  0.02595182  0.64196560  0.99360822    -0.12300
C67         C  0.99934080  0.62153228  0.99703507     0.01300
C68         C  0.47284791  0.64272073  0.99825688    -0.10900
C69         C  0.47265112  0.68366573  0.99560581     0.03800
C70         C  0.99943099  0.70381637  0.99377380    -0.10300
H71         H  0.04653998  0.62593983  0.99167604     0.09400
H72         H  0.45211500  0.62744960  0.00044185     0.06900
H73         H  0.99930808  0.73552149  0.99251715     0.06800
C74         C  0.02169643  0.67654742  0.49341293     0.03800
C75         C  0.49409312  0.69526665  0.49229100    -0.12300
C76         C  0.46820008  0.67346273  0.49587507     0.01300
C77         C  0.46996218  0.63267004  0.50033614    -0.10900
C78         C  0.49737051  0.61335022  0.50124231     0.03800
C79         C  0.02313687  0.63567210  0.49825490    -0.10300
H80         H  0.49272883  0.72670039  0.48792804     0.09400
H81         H  0.44979393  0.61605170  0.50236184     0.06900
H82         H  0.04443992  0.62132016  0.49900441     0.06800
C83         C  0.47257505  0.32429124  0.02110968     0.03800
C84         C  0.99973674  0.30484796  0.02624648    -0.12300
C85         C  0.02622650  0.32532865  0.02240292     0.01300
C86         C  0.02563640  0.36574317  0.01516373    -0.10900
C87         C  0.99880517  0.38596133  0.01085175     0.03800
C88         C  0.47243022  0.36480422  0.01279789    -0.10300
H89         H  0.00034987  0.27380069  0.03313041     0.09400
H90         H  0.04624301  0.38131513  0.01307285     0.06900
H91         H  0.45161646  0.37990782  0.00830762     0.06800
C92         C  0.47962931  0.31412043  0.49395101     0.03800
C93         C  0.50693825  0.29500929  0.49001765    -0.12300
C94         C  0.03312001  0.31647643  0.49087023     0.01300
C95         C  0.03198174  0.35739093  0.49507985    -0.10900
C96         C  0.50487290  0.37713303  0.49864797     0.03800
C97         C  0.47883753  0.35512036  0.49884498    -0.10300
H98         H  0.50785354  0.26348512  0.48565330     0.09400
H99         H  0.05233834  0.37372367  0.49513784     0.06900
H100        H  0.45776076  0.36983479  0.50198396     0.06800
O101        O  0.02499502  0.50615088  0.06312778    -0.73700
O102        O  0.02136191  0.50095538  0.93770712    -0.73800
O103        O  0.02349665  0.55927574  0.99805081    -0.73800
O104        O  0.02295000  0.44739623  0.00308319    -0.73900
O105        O  0.47402188  0.44794873  0.00620492    -0.73800
O106        O  0.47456016  0.56011994  0.00106131    -0.73800
O107        O  0.47235212  0.50134671  0.94063676    -0.73800
O108        O  0.47606438  0.50679281  0.06642040    -0.73800
Ni109      Ni  0.02491144  0.50335440  0.00033395     1.25400
Ni110      Ni  0.47248072  0.50408830  0.00364294     1.25400
C111        C  0.50118604  0.50720728  0.08551940     0.88400
C112        C  0.49629481  0.50067599  0.91852755     0.88400
C113        C  0.99911709  0.57822318  0.99879884     0.88400
C114        C  0.99852078  0.42914915  0.00609800     0.88600
O115        O  0.47825769  0.49552753  0.43833227    -0.73700
O116        O  0.47573713  0.49322592  0.56400263    -0.73800
O117        O  0.47513408  0.55019976  0.50264461    -0.73800
O118        O  0.47867655  0.43811402  0.49956155    -0.73900
O119        O  0.02756102  0.44016179  0.50272742    -0.73800
O120        O  0.02404381  0.55255603  0.50397074    -0.73800
O121        O  0.02463769  0.49618113  0.56644564    -0.73800
O122        O  0.02708590  0.49643779  0.44058540    -0.73800
Ni123      Ni  0.47523749  0.49412164  0.50109996     1.25400
Ni124      Ni  0.02758214  0.49639573  0.50357746     1.25400
C125        C  0.50307444  0.49668334  0.41852776     0.88400
C126        C  0.49974853  0.49463748  0.58598533     0.88400
C127        C  0.49896580  0.56996248  0.50304746     0.88400
C128        C  0.50365503  0.42055212  0.50062231     0.88600
C129        C  0.47669753  0.51935900  0.70342472    -0.04800
C130        C  0.49610562  0.49567463  0.72785709     0.09400
C131        C  0.01663748  0.47136963  0.70584661    -0.02200
C132        C  0.01783785  0.47081116  0.65950196    -0.00400
C133        C  0.49858379  0.49488202  0.63485196    -0.04000
C134        C  0.47807067  0.51928448  0.65715219     0.03000
C135        C  0.49549875  0.49728978  0.77697394     0.09800
C136        C  0.03656801  0.44698740  0.73107012     0.35700
C137        C  0.45913578  0.54563432  0.63268232     0.39100
C138        C  0.47992620  0.46893915  0.80083440    -0.04400
C139        C  0.47976126  0.47028152  0.84719415     0.02700
C140        C  0.49518020  0.50005540  0.86986037    -0.04000
C141        C  0.01004271  0.52907713  0.84586620    -0.00200
C142        C  0.01032246  0.52754890  0.79957812    -0.02800
C143        C  0.46407729  0.43843132  0.77754395     0.36500
C144        C  0.02413364  0.56138307  0.86877366     0.40100
C145        C  0.46436240  0.44045257  0.87156446     0.39200
C146        C  0.02580574  0.55718137  0.77504005     0.36100
C147        C  0.45536087  0.54397672  0.72610953     0.36800
C148        C  0.03839806  0.44464965  0.63733114     0.40100
N149        N  0.45208362  0.41672870  0.89111973    -0.38000
N150        N  0.45142145  0.41413120  0.75888774    -0.39600
N151        N  0.03517937  0.58726886  0.88706406    -0.37300
N152        N  0.03807377  0.58082279  0.75535635    -0.39700
N153        N  0.05241127  0.42753750  0.75128609    -0.39500
N154        N  0.05479697  0.42375797  0.61969137    -0.37100
N155        N  0.44413162  0.56672325  0.61311652    -0.38200
N156        N  0.43834315  0.56354856  0.74429790    -0.39800
C157        C  0.02347242  0.48273590  0.20286444    -0.04800
C158        C  0.50488066  0.50787744  0.22736214     0.09400
C159        C  0.48586600  0.53400224  0.20540299    -0.02200
C160        C  0.48440269  0.53370181  0.15908244    -0.00400
C161        C  0.50283979  0.50822043  0.13435973    -0.04000
C162        C  0.02287123  0.48337765  0.15658672     0.03000
C163        C  0.50441473  0.50549719  0.27640729     0.09800
C164        C  0.46799395  0.56140685  0.23066659     0.35700
C165        C  0.04250565  0.45774151  0.13194332     0.39100
C166        C  0.02686907  0.52281995  0.30170570    -0.04400
C167        C  0.02677256  0.51955304  0.34790900     0.02700
C168        C  0.50392791  0.49899174  0.36939688    -0.04000
C169        C  0.48149183  0.48149123  0.34348838    -0.00200
C170        C  0.48178154  0.48487223  0.29735099    -0.02800
C171        C  0.04999843  0.54434694  0.28000027     0.36500
C172        C  0.45833514  0.45896919  0.36375644     0.40100
C173        C  0.05006283  0.53817435  0.37295503     0.39200
C174        C  0.45881312  0.46681018  0.27109257     0.36100
C175        C  0.04286226  0.45563438  0.22543039     0.36800
C176        C  0.46438241  0.56032815  0.13701810     0.40100
N177        N  0.06880951  0.55275592  0.39282073    -0.38000
N178        N  0.06844539  0.56146442  0.26264771    -0.39600
N179        N  0.43970886  0.44114877  0.37972453    -0.37300
N180        N  0.44051793  0.45259721  0.24998444    -0.39700
N181        N  0.45389976  0.58338103  0.25091932    -0.39500
N182        N  0.44832863  0.58147754  0.11945793    -0.37100
N183        N  0.05835332  0.43784640  0.11192643    -0.38200
N184        N  0.05828835  0.43402779  0.24350525    -0.39800
C185        C  0.08270777  0.75035597  0.51590263    -0.04800
C186        C  0.10339418  0.74013687  0.48306518     0.09400
C187        C  0.09657221  0.71026569  0.45236847    -0.02200
C188        C  0.06920541  0.69113256  0.45426236    -0.00400
C189        C  0.04933414  0.69952948  0.48890104    -0.04000
C190        C  0.05633751  0.72920690  0.51981401     0.03000
C191        C  0.13276886  0.75989136  0.48213225     0.09800
C192        C  0.11800953  0.69856811  0.41943768     0.35700
C193        C  0.03712229  0.73693777  0.55690366     0.39100
C194        C  0.15300737  0.75378990  0.51668354    -0.04400
C195        C  0.17961996  0.77457437  0.51796823     0.02700
C196        C  0.18767461  0.79865087  0.48259099    -0.04000
C197        C  0.16782621  0.80405679  0.44739500    -0.00200
C198        C  0.14012662  0.78559354  0.44776696    -0.02800
C199        C  0.14649537  0.72591579  0.55094260     0.36500
C200        C  0.17594799  0.82839084  0.41067515     0.40100
C201        C  0.19767902  0.77340620  0.55722690     0.39200
C202        C  0.11907128  0.79333874  0.41304518     0.36100
C203        C  0.08871545  0.78256094  0.54598541     0.36800
C204        C  0.06116438  0.66361313  0.41976726     0.40100
N205        N  0.21154201  0.77327299  0.58912395    -0.38000
N206        N  0.14133073  0.70356986  0.57815391    -0.39600
N207        N  0.18239095  0.84759784  0.38115948    -0.37300
N208        N  0.10225618  0.79943687  0.38533578    -0.39700
N209        N  0.13517546  0.68923758  0.39326167    -0.39500
N210        N  0.05459569  0.64205239  0.39194276    -0.37100
N211        N  0.02206846  0.74310421  0.58681848    -0.38200
N212        N  0.09355529  0.80826220  0.56992036    -0.39800
C213        C  0.34961081  0.78326415  0.45807188    -0.04800
C214        C  0.35336145  0.74917415  0.48329449     0.09400
C215        C  0.32917781  0.73398969  0.50626264    -0.02200
C216        C  0.30207660  0.75447099  0.50715120    -0.00400
C217        C  0.29837638  0.78962996  0.48304282    -0.04000
C218        C  0.32207086  0.80257963  0.45669778     0.03000
C219        C  0.38295086  0.72959739  0.48645434     0.09800
C220        C  0.33228249  0.69699891  0.52899742     0.35700
C221        C  0.31796130  0.83500223  0.42678176     0.39100
C222        C  0.39969460  0.73309195  0.52544044    -0.04400
C223        C  0.42755774  0.71483823  0.52857621     0.02700
C224        C  0.43894498  0.69306790  0.49269598    -0.04000
C225        C  0.42214135  0.68936410  0.45383041    -0.00200
C226        C  0.39420949  0.70741875  0.45078083    -0.02800
C227        C  0.38810038  0.75535541  0.56246485     0.36500
C228        C  0.43377693  0.66715165  0.41680833     0.40100
C229        C  0.44417489  0.71769671  0.56914732     0.39200
C230        C  0.37687516  0.70287937  0.41107310     0.36100
C231        C  0.37429755  0.79874822  0.43382751     0.36800
C232        C  0.27853018  0.73905843  0.53372684     0.40100
N233        N  0.45718128  0.71996178  0.60175710    -0.38000
N234        N  0.37868711  0.77292355  0.59202038    -0.39600
N235        N  0.44317748  0.64937823  0.38739856    -0.37300
N236        N  0.36304437  0.69935775  0.37936374    -0.39700
N237        N  0.33475065  0.66740191  0.54687591    -0.39500
N238        N  0.26022119  0.72537771  0.55483272    -0.37100
N239        N  0.31462041  0.86077679  0.40283604    -0.38200
N240        N  0.39402266  0.81103340  0.41450049    -0.39800
C241        C  0.10490829  0.71578996  0.01754896    -0.04800
C242        C  0.10971723  0.74362763  0.98435171     0.09400
C243        C  0.08717452  0.75139896  0.95360979    -0.02200
C244        C  0.06030198  0.73099427  0.95555082    -0.00400
C245        C  0.05496817  0.70431294  0.98993227    -0.04000
C246        C  0.07738693  0.69731683  0.02130960     0.03000
C247        C  0.13824813  0.76554072  0.98278952     0.09800
C248        C  0.09154150  0.78073242  0.92014362     0.35700
C249        C  0.07192124  0.67211312  0.05848676     0.39100
C250        C  0.15868397  0.75839727  0.94865837    -0.04400
C251        C  0.18546205  0.77908293  0.94749637    -0.00100
C252        C  0.19279147  0.80560777  0.98174827    -0.04000
C253        C  0.17243328  0.81227324  0.01624896    -0.00200
C254        C  0.14506292  0.79311019  0.01611180    -0.02800
C255        C  0.15232822  0.72927790  0.91502752     0.36500
C256        C  0.17988235  0.83802942  0.05275977     0.40100
C257        C  0.20507789  0.77384682  0.91033151     0.39200
C258        C  0.12382483  0.80169971  0.05048043     0.36100
C259        C  0.12846579  0.70598641  0.04779508     0.36800
C260        C  0.03851435  0.73671727  0.92131544     0.40100
N261        N  0.22069720  0.76983838  0.88062122    -0.38000
N262        N  0.14724428  0.70602331  0.88821966    -0.39600
N263        N  0.18580763  0.85859584  0.08184747    -0.37300
N264        N  0.10688367  0.80841719  0.07791126    -0.39700
N265        N  0.09504851  0.80412727  0.89344351    -0.39500
N266        N  0.02113087  0.74117351  0.89398717    -0.37100
N267        N  0.06755695  0.65213274  0.08823407    -0.38200
N268        N  0.14732588  0.69817667  0.07178345    -0.39800
C269        C  0.33641971  0.75293543  0.01730381    -0.04800
C270        C  0.35861532  0.76193041  0.98668129     0.09400
C271        C  0.35294842  0.79011971  0.95403084    -0.02200
C272        C  0.32539023  0.80925322  0.95212917    -0.00400
C273        C  0.30364610  0.80172201  0.98412036    -0.04000
C274        C  0.30933756  0.77336465  0.01671498     0.03000
C275        C  0.38808390  0.74197459  0.98898650     0.09800
C276        C  0.37564507  0.79967176  0.92252193     0.35700
C277        C  0.28776153  0.76606881  0.05066533     0.39100
C278        C  0.39658054  0.71471713  0.95611198    -0.04400
C279        C  0.42465400  0.69703037  0.95742201     0.02700
C280        C  0.44398216  0.70489606  0.99283204    -0.04000
C281        C  0.43532793  0.73168431  0.02610639    -0.00200
C282        C  0.40770622  0.75067707  0.02376253    -0.02800
C283        C  0.37626215  0.70450858  0.92111673     0.36500
C284        C  0.45446221  0.73884508  0.06344588     0.40100
C285        C  0.43390112  0.67124956  0.92175005     0.39200
C286        C  0.39942021  0.77920970  0.05721035     0.36100
C287        C  0.34147464  0.72250892  0.04943335     0.36800
C288        C  0.31924740  0.83613629  0.91659148     0.40100
N289        N  0.44141256  0.65075835  0.89334289    -0.38000
N290        N  0.36007670  0.69637999  0.89317278    -0.39600
N291        N  0.46971516  0.74443759  0.09328057    -0.37300
N292        N  0.39271343  0.80187901  0.08394110    -0.39700
N293        N  0.39376699  0.80706583  0.89734378    -0.39500
N294        N  0.31434817  0.85748473  0.88816510    -0.37100
N295        N  0.27052881  0.76031357  0.07773581    -0.38200
N296        N  0.34553014  0.69821552  0.07502474    -0.39800
C297        C  0.41922987  0.23974453  0.51727783    -0.04800
C298        C  0.39743782  0.25085558  0.48663326     0.09400
C299        C  0.40323839  0.28151766  0.45715835    -0.02200
C300        C  0.43055230  0.30081931  0.45833960    -0.00400
C301        C  0.45163291  0.29152438  0.49094148    -0.04000
C302        C  0.44573676  0.26081544  0.52047748     0.03000
C303        C  0.36803614  0.23112388  0.48665344     0.09800
C304        C  0.38094360  0.29359873  0.42588564     0.35700
C305        C  0.46626005  0.25166800  0.55541768     0.39100
C306        C  0.34881466  0.23655231  0.52268185    -0.04400
C307        C  0.32192350  0.21636029  0.52418658     0.02700
C308        C  0.31286247  0.19307412  0.48813788    -0.04000
C309        C  0.33163472  0.18854155  0.45148741    -0.00200
C310        C  0.35948831  0.20653507  0.45131575    -0.02800
C311        C  0.35666224  0.26316776  0.55819663     0.36500
C312        C  0.32206255  0.16587919  0.41362817     0.40100
C313        C  0.30439108  0.21789010  0.56389764     0.39200
C314        C  0.37948207  0.19942430  0.41499045     0.36100
C315        C  0.41431339  0.20647290  0.54559062     0.36800
C316        C  0.43727732  0.32950394  0.42506313     0.40100
N317        N  0.29099437  0.21860139  0.59617592    -0.38000
N318        N  0.36293838  0.28447719  0.58642576    -0.39600
N319        N  0.31430469  0.14810808  0.38325234    -0.37300
N320        N  0.39544679  0.19379953  0.38600497    -0.39700
N321        N  0.36320509  0.30319942  0.40084382    -0.39500
N322        N  0.44283756  0.35217592  0.39838968    -0.37100
N323        N  0.48220673  0.24401759  0.58374317    -0.38200
N324        N  0.41036069  0.17987042  0.56803590    -0.39800
C325        C  0.10723317  0.28197584  0.44621998    -0.04800
C326        C  0.11716558  0.25755453  0.48049119     0.09400
C327        C  0.09908430  0.25193839  0.51759813    -0.02200
C328        C  0.07224715  0.27243485  0.52168267    -0.00400
C329        C  0.06195434  0.29598642  0.48700884    -0.04000
C330        C  0.07934489  0.30024401  0.44894997     0.03000
C331        C  0.14719568  0.23913552  0.47902436     0.09800
C332        C  0.10819667  0.22507894  0.55176301     0.35700
C333        C  0.06846122  0.32334665  0.41256049     0.39100
C334        C  0.16888654  0.25132118  0.50934996    -0.04400
C335        C  0.19589930  0.23101684  0.51214605     0.02700
C336        C  0.20233873  0.19984249  0.48265679    -0.04000
C337        C  0.18135120  0.18954808  0.45015497    -0.00200
C338        C  0.15359141  0.20828169  0.44925723    -0.02800
C339        C  0.16309030  0.28441302  0.53847390     0.36500
C340        C  0.18835590  0.15986631  0.41727659     0.40100
C341        C  0.21620793  0.24114079  0.54709362     0.39200
C342        C  0.13130365  0.19504635  0.41849938     0.36100
C343        C  0.12587460  0.28881534  0.40849874     0.36800
C344        C  0.05622043  0.27127235  0.56277678     0.40100
N345        N  0.23192012  0.24968587  0.57545074    -0.38000
N346        N  0.15838434  0.31070733  0.56175326    -0.39600
N347        N  0.19397766  0.13624356  0.39102324    -0.37300
N348        N  0.11350986  0.18453227  0.39395884    -0.39700
N349        N  0.11548657  0.20357689  0.57890046    -0.39500
N350        N  0.04400948  0.27091332  0.59608140    -0.37100
N351        N  0.05965693  0.34168688  0.38353915    -0.38200
N352        N  0.14071463  0.29421597  0.37834126    -0.39800
C353        C  0.41188540  0.24895529  0.00074912    -0.04800
C354        C  0.38893435  0.26414891  0.02710080     0.09400
C355        C  0.39381186  0.29796021  0.05300711    -0.02200
C356        C  0.42156767  0.31620908  0.05293887    -0.00400
C357        C  0.44414475  0.30250701  0.02444370    -0.04000
C358        C  0.43900909  0.26857241  0.99839163     0.03000
C359        C  0.35952298  0.24459563  0.02691275     0.09800
C360        C  0.37000566  0.31440530  0.07911681     0.35700
C361        C  0.46103968  0.25410563  0.96785721     0.39100
C362        C  0.35023123  0.22283513  0.06355788    -0.04400
C363        C  0.32298619  0.20333265  0.06254963     0.02700
C364        C  0.30526095  0.20461506  0.02449244    -0.04000
C365        C  0.31486116  0.22556811  0.98751651    -0.00200
C366        C  0.34148731  0.24637345  0.98914440    -0.02800
C367        C  0.36896538  0.22000155  0.10199610     0.36500
C368        C  0.29817339  0.22397194  0.94693041     0.40100
C369        C  0.31329368  0.18152551  0.10045928     0.39200
C370        C  0.35047451  0.26946614  0.95178581     0.36100
C371        C  0.40743099  0.21307295  0.97568259     0.36800
C372        C  0.42703622  0.34838289  0.08329279     0.40100
N373        N  0.30553189  0.16405322  0.13063782    -0.38000
N374        N  0.38394729  0.21787811  0.13264833    -0.39600
N375        N  0.28536824  0.22219227  0.91411161    -0.37300
N376        N  0.35769311  0.28787033  0.92201110    -0.39700
N377        N  0.35092035  0.32750227  0.09976362    -0.39500
N378        N  0.43138990  0.37392918  0.10765860    -0.37100
N379        N  0.47816643  0.24171260  0.94325987    -0.38200
N380        N  0.40380205  0.18449611  0.95571329    -0.39800
C381        C  0.09148184  0.26013256  0.99238996    -0.04800
C382        C  0.11042229  0.26642664  0.02854765     0.09400
C383        C  0.10149424  0.29185617  0.06299037    -0.02200
C384        C  0.07344971  0.30976644  0.06191083    -0.00400
C385        C  0.05494275  0.30440954  0.02507773    -0.04000
C386        C  0.06442743  0.28032662  0.98982879     0.03000
C387        C  0.14003989  0.24690373  0.02955824     0.09800
C388        C  0.12141018  0.30018597  0.09908295     0.35700
C389        C  0.04729274  0.27821990  0.94970176     0.39100
C390        C  0.16204681  0.25822127  0.99972553    -0.04400
C391        C  0.18894990  0.23753843  0.99767971     0.02700
C392        C  0.19503613  0.20712615  0.02769929    -0.04000
C393        C  0.17374871  0.19790698  0.05976763    -0.00200
C394        C  0.14593767  0.21650898  0.05945281    -0.02800
C395        C  0.15692528  0.29120963  0.97093436     0.36500
C396        C  0.18093391  0.17099971  0.09471061     0.40100
C397        C  0.20985691  0.24701114  0.96359182     0.39200
C398        C  0.12315426  0.20392201  0.08937383     0.36100
C399        C  0.09991116  0.23286589  0.95770024     0.36800
C400        C  0.06346723  0.33327278  0.09896957     0.40100
N401        N  0.22620825  0.25496431  0.93608131    -0.38000
N402        N  0.15288735  0.31757654  0.94805564    -0.39600
N403        N  0.18660836  0.15045177  0.12352513    -0.37300
N404        N  0.10485300  0.19389891  0.11302837    -0.39700
N405        N  0.13736832  0.30691962  0.12777409    -0.39500
N406        N  0.05541126  0.35157987  0.12884568    -0.37100
N407        N  0.03421926  0.27709116  0.91709009    -0.38200
N408        N  0.10666621  0.21102404  0.93014783    -0.39800
C409        C  0.26192523  0.03612038  0.79581542    -0.04800
C410        C  0.24765968  0.00518280  0.77351695     0.09400
C411        C  0.23356907  0.97572020  0.79763073    -0.02200
C412        C  0.23414853  0.97676374  0.84391020    -0.00400
C413        C  0.24840030  0.00774002  0.86633702    -0.04000
C414        C  0.26225362  0.03745961  0.84216203     0.03000
C415        C  0.24801547  0.00304092  0.72446104     0.09800
C416        C  0.21858534  0.94423217  0.77464016     0.35700
C417        C  0.27621702  0.06987193  0.86499092     0.39100
C418        C  0.27150007  0.98419330  0.70259775    -0.04400
C419        C  0.27165778  0.98119393  0.65634620     0.02700
C420        C  0.24871644  0.99848938  0.63125952    -0.04000
C421        C  0.22529402  0.01788056  0.65370360    -0.00200
C422        C  0.22468694  0.01919727  0.70003941    -0.02800
C423        C  0.29544126  0.96749076  0.72798715     0.36500
C424        C  0.20216542  0.03785740  0.62961866     0.40100
C425        C  0.29511863  0.95910934  0.63510709     0.39200
C426        C  0.19985944  0.03690246  0.72282809     0.36100
C427        C  0.27618076  0.06657579  0.77093061     0.36800
C428        C  0.22112806  0.94501838  0.86837243     0.40100
N429        N  0.31383645  0.94142482  0.61828543    -0.38000
N430        N  0.31454294  0.95429008  0.74830041    -0.39600
N431        N  0.18371932  0.05393547  0.61057807    -0.37300
N432        N  0.17994085  0.05064782  0.74104971    -0.39700
N433        N  0.20654618  0.91926041  0.75618085    -0.39500
N434        N  0.21087787  0.91952945  0.88774065    -0.37100
N435        N  0.28725470  0.09573356  0.88333425    -0.38200
N436        N  0.28754316  0.09084651  0.75099842    -0.39800
C437        C  0.23230360  0.02487954  0.20123697    -0.04800
C438        C  0.25212471  0.00026763  0.22369165     0.09400
C439        C  0.27123195  0.97536040  0.19975216    -0.02200
C440        C  0.27077805  0.97533369  0.15340828    -0.00400
C441        C  0.25083826  0.99990934  0.13069360    -0.04000
C442        C  0.23122590  0.02415602  0.15498159     0.03000
C443        C  0.25201559  0.99937325  0.27275140     0.09800
C444        C  0.29100301  0.94925413  0.22302392     0.35700
C445        C  0.20968752  0.04820816  0.13248688     0.39100
C446        C  0.23012967  0.97827557  0.29489819    -0.04400
C447        C  0.23005002  0.97690524  0.34113865     0.02700
C448        C  0.25192260  0.99676252  0.36572375    -0.04000
C449        C  0.27379150  0.01810400  0.34327197    -0.00200
C450        C  0.27376488  0.01938253  0.29696198    -0.02800
C451        C  0.20768697  0.95782673  0.26990154     0.36500
C452        C  0.29587092  0.03980541  0.36762694     0.40100
C453        C  0.20774850  0.95419640  0.36319339     0.39200
C454        C  0.29591771  0.04168041  0.27404493     0.36100
C455        C  0.21306378  0.05106529  0.22589623     0.36800
C456        C  0.28979482  0.94847648  0.12929769     0.40100
N457        N  0.18989708  0.93634777  0.38096984    -0.38000
N458        N  0.18974486  0.94167946  0.24990575    -0.39600
N459        N  0.31354162  0.05694564  0.38711474    -0.37300
N460        N  0.31356404  0.05941786  0.25566405    -0.39700
N461        N  0.30670336  0.92847544  0.24177814    -0.39500
N462        N  0.30487738  0.92691974  0.11009969    -0.37100
N463        N  0.19219092  0.06648044  0.11401706    -0.38200
N464        N  0.19778636  0.07198844  0.24561244    -0.39800
O465        O  0.77493092  0.00137547  0.06072033    -0.73700
O466        O  0.77375404  0.00819740  0.93510811    -0.73800
O467        O  0.77419542  0.06087176  0.00288298    -0.73800
O468        O  0.77434487  0.94869727  0.99322962    -0.73900
O469        O  0.72537380  0.94929496  0.99411981    -0.73800
O470        O  0.72523153  0.06124020  0.00374635    -0.73800
O471        O  0.72470019  0.00826702  0.93610737    -0.73800
O472        O  0.72596089  0.00159514  0.06139065    -0.73800
Ni473      Ni  0.77607050  0.00480245  0.99789944     1.25400
Ni474      Ni  0.72360149  0.00517682  0.99883125     1.25400
C475        C  0.75058549  0.00073073  0.08180765     0.88400
C476        C  0.74900788  0.00848783  0.91497578     0.88400
C477        C  0.74970235  0.07956367  0.00576819     0.88400
C478        C  0.74979729  0.93047282  0.99191378     0.88600
O479        O  0.72687057  0.99824546  0.43482843    -0.73700
O480        O  0.72521574  0.99706060  0.56037350    -0.73800
O481        O  0.72828432  0.05355869  0.49853308    -0.73800
O482        O  0.72385859  0.94143822  0.49620638    -0.73900
O483        O  0.77270163  0.93755764  0.49919921    -0.73800
O484        O  0.77718221  0.04977275  0.49831039    -0.73800
O485        O  0.77404158  0.99514577  0.56184789    -0.73800
O486        O  0.77567507  0.99282303  0.43603786    -0.73800
Ni487      Ni  0.72433047  0.99766211  0.49751994     1.25400
Ni488      Ni  0.77664034  0.99360663  0.49899813     1.25400
C489        C  0.75150371  0.99582801  0.41463619     0.88400
C490        C  0.74935600  0.99668740  0.58206234     0.88400
C491        C  0.75344851  0.07021666  0.49788221     0.88400
C492        C  0.74755590  0.92089028  0.49698910     0.88600
C493        C  0.77685486  0.18349282  0.02296983     0.03800
C494        C  0.75033477  0.20411271  0.02816255    -0.12300
C495        C  0.72332001  0.18463232  0.02489858     0.01300
C496        C  0.72321568  0.14390353  0.01724122    -0.10900
C497        C  0.74974847  0.12271394  0.01254426     0.03800
C498        C  0.77650503  0.14297583  0.01533631    -0.10300
H499        H  0.75073484  0.23544024  0.03420648     0.09400
H500        H  0.70235661  0.12888497  0.01461539     0.06900
H501        H  0.79718710  0.12742919  0.01151019     0.06800
C502        C  0.78383634  0.17325352  0.48901430     0.03800
C503        C  0.78237017  0.13248903  0.49376506    -0.12300
C504        C  0.75507014  0.11350960  0.49538467     0.01300
C505        C  0.72918010  0.13609961  0.49280286    -0.10900
C506        C  0.73027766  0.17682264  0.48694971     0.03800
C507        C  0.75777424  0.19522639  0.48507900    -0.10300
H508        H  0.80264072  0.11567102  0.49605653     0.09400
H509        H  0.70796561  0.12200217  0.49465907     0.06900
H510        H  0.75895103  0.22659225  0.48038677     0.06800
C511        C  0.77538146  0.82431980  0.98414915     0.03800
C512        C  0.77574126  0.86537414  0.98788567    -0.12300
C513        C  0.74943913  0.88717737  0.98775684     0.01300
C514        C  0.72257495  0.86731847  0.98409792    -0.10900
C515        C  0.72170192  0.82626036  0.98184676     0.03800
C516        C  0.74825550  0.80497544  0.98133379    -0.10300
H517        H  0.79661506  0.88019299  0.99111302     0.09400
H518        H  0.70210022  0.88368986  0.98365088     0.06900
H519        H  0.74780864  0.77327970  0.97931135     0.06800
C520        C  0.71677666  0.81834894  0.48318568     0.03800
C521        C  0.74273263  0.79599008  0.47989803    -0.12300
C522        C  0.77039965  0.81345406  0.48581641     0.01300
C523        C  0.77153184  0.85421515  0.49376931    -0.10900
C524        C  0.74582349  0.87746164  0.49387298     0.03800
C525        C  0.71845617  0.85899842  0.48934516    -0.10300
H526        H  0.74119074  0.76491074  0.47301714     0.09400
H527        H  0.79264012  0.86796478  0.49902296     0.06900
H528        H  0.69829571  0.87608893  0.49084312     0.06800
C529        C  0.52629990  0.68313059  0.99265450     0.03800
C530        C  0.52595182  0.64196554  0.99360794    -0.12300
C531        C  0.49934085  0.62153217  0.99703480     0.01300
C532        C  0.97284788  0.64272080  0.99825717    -0.10900
C533        C  0.97265107  0.68366580  0.99560600     0.03800
C534        C  0.49943103  0.70381630  0.99377369    -0.10300
H535        H  0.54654011  0.62593965  0.99167578     0.09400
H536        H  0.95211496  0.62744966  0.00044221     0.06900
H537        H  0.49930813  0.73552142  0.99251713     0.06800
C538        C  0.52169647  0.67654743  0.49341283     0.03800
C539        C  0.99409309  0.69526660  0.49229106    -0.12300
C540        C  0.96820005  0.67346270  0.49587529     0.01300
C541        C  0.96996217  0.63267000  0.50033644    -0.10900
C542        C  0.99737051  0.61335021  0.50124262     0.03800
C543        C  0.52313687  0.63567209  0.49825465    -0.10300
H544        H  0.99272878  0.72670035  0.48792798     0.09400
H545        H  0.94979393  0.61605164  0.50236212     0.06900
H546        H  0.54443991  0.62132012  0.49900415     0.06800
C547        C  0.97257506  0.32429131  0.02110973     0.03800
C548        C  0.49973673  0.30484792  0.02624646    -0.12300
C549        C  0.52622651  0.32532858  0.02240279     0.01300
C550        C  0.52563639  0.36574307  0.01516356    -0.10900
C551        C  0.49880517  0.38596125  0.01085169     0.03800
C552        C  0.97243025  0.36480428  0.01279789    -0.10300
H553        H  0.50034984  0.27380064  0.03313041     0.09400
H554        H  0.54624304  0.38131507  0.01307253     0.06900
H555        H  0.95161646  0.37990789  0.00830760     0.06800
C556        C  0.97962928  0.31412042  0.49395101     0.03800
C557        C  0.00693824  0.29500930  0.49001767    -0.12300
C558        C  0.53312002  0.31647642  0.49087014     0.01300
C559        C  0.53198177  0.35739093  0.49507978    -0.10900
C560        C  0.00487285  0.37713303  0.49864804     0.03800
C561        C  0.97883753  0.35512034  0.49884498    -0.10300
H562        H  0.00785354  0.26348513  0.48565331     0.09400
H563        H  0.55233839  0.37372366  0.49513770     0.06900
H564        H  0.95776065  0.36983483  0.50198398     0.06800
O565        O  0.52499507  0.50615062  0.06312755    -0.73700
O566        O  0.52136190  0.50095531  0.93770689    -0.73800
O567        O  0.52349666  0.55927558  0.99805061    -0.73800
O568        O  0.52295000  0.44739607  0.00308289    -0.73900
O569        O  0.97402188  0.44794882  0.00620493    -0.73800
O570        O  0.97456015  0.56012003  0.00106153    -0.73800
O571        O  0.97235213  0.50134679  0.94063693    -0.73800
O572        O  0.97606433  0.50679282  0.06642060    -0.73800
Ni573      Ni  0.52491145  0.50335423  0.00033371     1.25400
Ni574      Ni  0.97248071  0.50408838  0.00364310     1.25400
C575        C  0.00118597  0.50720744  0.08551962     0.88400
C576        C  0.99629482  0.50067602  0.91852774     0.88400
C577        C  0.49911710  0.57822306  0.99879860     0.88400
C578        C  0.49852076  0.42914904  0.00609789     0.88600
O579        O  0.97825769  0.49552749  0.43833253    -0.73700
O580        O  0.97573713  0.49322596  0.56400282    -0.73800
O581        O  0.97513408  0.55019975  0.50264476    -0.73800
O582        O  0.97867653  0.43811403  0.49956187    -0.73900
O583        O  0.52756103  0.44016180  0.50272727    -0.73800
O584        O  0.52404381  0.55255604  0.50397055    -0.73800
O585        O  0.52463769  0.49618113  0.56644545    -0.73800
O586        O  0.52708590  0.49643778  0.44058519    -0.73800
Ni587      Ni  0.97523749  0.49412164  0.50110019     1.25400
Ni588      Ni  0.52758213  0.49639573  0.50357726     1.25400
C589        C  0.00307443  0.49668333  0.41852801     0.88400
C590        C  0.99974852  0.49463750  0.58598552     0.88400
C591        C  0.99896581  0.56996247  0.50304765     0.88400
C592        C  0.00365502  0.42055212  0.50062250     0.88600
C593        C  0.97669757  0.51935898  0.70342492    -0.04800
C594        C  0.99610570  0.49567466  0.72785727     0.09400
C595        C  0.51663742  0.47136959  0.70584646    -0.02200
C596        C  0.51783783  0.47081115  0.65950181    -0.00400
C597        C  0.99858378  0.49488200  0.63485212    -0.04000
C598        C  0.97807063  0.51928438  0.65715239     0.03000
C599        C  0.99549883  0.49728981  0.77697411     0.09800
C600        C  0.53656794  0.44698732  0.73106992     0.35700
C601        C  0.95913566  0.54563418  0.63268256     0.39100
C602        C  0.97992629  0.46893917  0.80083459    -0.04400
C603        C  0.97976128  0.47028156  0.84719433     0.02700
C604        C  0.99518022  0.50005544  0.86986055    -0.04000
C605        C  0.51004270  0.52907708  0.84586602    -0.00200
C606        C  0.51032244  0.52754882  0.79957796    -0.02800
C607        C  0.96407739  0.43843129  0.77754416     0.36500
C608        C  0.52413368  0.56138305  0.86877341     0.40100
C609        C  0.96436241  0.44045260  0.87156463     0.39200
C610        C  0.52580573  0.55718121  0.77503993     0.36100
C611        C  0.95536089  0.54397662  0.72610972     0.36800
C612        C  0.53839806  0.44464964  0.63733098     0.40100
N613        N  0.95208360  0.41672868  0.89111981    -0.38000
N614        N  0.95142149  0.41413120  0.75888808    -0.39600
N615        N  0.53517953  0.58726880  0.88706368    -0.37300
N616        N  0.53807382  0.58082264  0.75535626    -0.39700
N617        N  0.55241123  0.42753731  0.75128571    -0.39500
N618        N  0.55479694  0.42375801  0.61969112    -0.37100
N619        N  0.94413155  0.56672321  0.61311683    -0.38200
N620        N  0.93834308  0.56354839  0.74429804    -0.39800
C621        C  0.52347244  0.48273562  0.20286423    -0.04800
C622        C  0.00488054  0.50787758  0.22736239     0.09400
C623        C  0.98586581  0.53400222  0.20540323    -0.02200
C624        C  0.98440256  0.53370190  0.15908269    -0.00400
C625        C  0.00283974  0.50822063  0.13435995    -0.04000
C626        C  0.52287122  0.48337735  0.15658650     0.03000
C627        C  0.00441460  0.50549736  0.27640755     0.09800
C628        C  0.96799368  0.56140676  0.23066681     0.35700
C629        C  0.54250563  0.45774123  0.13194315     0.39100
C630        C  0.52686922  0.52281972  0.30170547    -0.04400
C631        C  0.52677273  0.51955288  0.34790879     0.02700
C632        C  0.00392784  0.49899176  0.36939713    -0.04000
C633        C  0.98149177  0.48149122  0.34348867    -0.00200
C634        C  0.98178141  0.48487234  0.29735129    -0.02800
C635        C  0.54999851  0.54434669  0.28000001     0.36500
C636        C  0.95833507  0.45896916  0.36375678     0.40100
C637        C  0.55006299  0.53817424  0.37295486     0.39200
C638        C  0.95881301  0.46681024  0.27109291     0.36100
C639        C  0.54286226  0.45563407  0.22543023     0.36800
C640        C  0.96438223  0.56032816  0.13701838     0.40100
N641        N  0.56880964  0.55275587  0.39282064    -0.38000
N642        N  0.56844543  0.56146416  0.26264734    -0.39600
N643        N  0.93970873  0.44114884  0.37972481    -0.37300
N644        N  0.94051785  0.45259718  0.24998473    -0.39700
N645        N  0.95389950  0.58338101  0.25091941    -0.39500
N646        N  0.94832840  0.58147752  0.11945827    -0.37100
N647        N  0.55835335  0.43784607  0.11192634    -0.38200
N648        N  0.55828833  0.43402752  0.24350523    -0.39800
C649        C  0.58270777  0.75035599  0.51590252    -0.04800
C650        C  0.60339420  0.74013692  0.48306511     0.09400
C651        C  0.59657223  0.71026578  0.45236836    -0.02200
C652        C  0.56920549  0.69113255  0.45426230    -0.00400
C653        C  0.54933420  0.69952944  0.48890096    -0.04000
C654        C  0.55633754  0.72920692  0.51981391     0.03000
C655        C  0.63276884  0.75989140  0.48213220     0.09800
C656        C  0.61800955  0.69856828  0.41943753     0.35700
C657        C  0.53712231  0.73693778  0.55690349     0.39100
C658        C  0.65300736  0.75378990  0.51668346    -0.04400
C659        C  0.67961992  0.77457439  0.51796821     0.02700
C660        C  0.68767460  0.79865089  0.48259097    -0.04000
C661        C  0.66782621  0.80405680  0.44739495    -0.00200
C662        C  0.64012661  0.78559359  0.44776691    -0.02800
C663        C  0.64649536  0.72591574  0.55094250     0.36500
C664        C  0.67594799  0.82839092  0.41067513     0.40100
C665        C  0.69767895  0.77340623  0.55722693     0.39200
C666        C  0.61907127  0.79333876  0.41304508     0.36100
C667        C  0.58871544  0.78256099  0.54598531     0.36800
C668        C  0.56116448  0.66361310  0.41976715     0.40100
N669        N  0.71154195  0.77327299  0.58912393    -0.38000
N670        N  0.64133073  0.70356987  0.57815383    -0.39600
N671        N  0.68239093  0.84759804  0.38115958    -0.37300
N672        N  0.60225624  0.79943684  0.38533561    -0.39700
N673        N  0.63517540  0.68923767  0.39326148    -0.39500
N674        N  0.55459575  0.64205248  0.39194262    -0.37100
N675        N  0.52206842  0.74310422  0.58681829    -0.38200
N676        N  0.59355528  0.80826218  0.56992029    -0.39800
C677        C  0.84961080  0.78326423  0.45807209    -0.04800
C678        C  0.85336143  0.74917417  0.48329463     0.09400
C679        C  0.82917778  0.73398966  0.50626271    -0.02200
C680        C  0.80207656  0.75447099  0.50715133    -0.00400
C681        C  0.79837637  0.78963002  0.48304298    -0.04000
C682        C  0.82207088  0.80257977  0.45669804     0.03000
C683        C  0.88295085  0.72959745  0.48645450     0.09800
C684        C  0.83228246  0.69699882  0.52899744     0.35700
C685        C  0.81796132  0.83500236  0.42678201     0.39100
C686        C  0.89969457  0.73309198  0.52544064    -0.04400
C687        C  0.92755771  0.71483824  0.52857641     0.02700
C688        C  0.93894496  0.69306790  0.49269617    -0.04000
C689        C  0.92214137  0.68936419  0.45383057    -0.00200
C690        C  0.89420952  0.70741887  0.45078096    -0.02800
C691        C  0.88810036  0.75535540  0.56246507     0.36500
C692        C  0.93377694  0.66715169  0.41680850     0.40100
C693        C  0.94417486  0.71769663  0.56914750     0.39200
C694        C  0.87687520  0.70287951  0.41107323     0.36100
C695        C  0.87429756  0.79874830  0.43382767     0.36800
C696        C  0.77853016  0.73905845  0.53372694     0.40100
N697        N  0.95718132  0.71996153  0.60175726    -0.38000
N698        N  0.87868712  0.77292352  0.59202067    -0.39600
N699        N  0.94317744  0.64937828  0.38739871    -0.37300
N700        N  0.86304434  0.69935780  0.37936393    -0.39700
N701        N  0.83475064  0.66740180  0.54687582    -0.39500
N702        N  0.76022111  0.72537768  0.55483282    -0.37100
N703        N  0.81462041  0.86077683  0.40283612    -0.38200
N704        N  0.89402264  0.81103339  0.41450056    -0.39800
C705        C  0.60490833  0.71578991  0.01754879    -0.04800
C706        C  0.60971727  0.74362755  0.98435152     0.09400
C707        C  0.58717454  0.75139887  0.95360960    -0.02200
C708        C  0.56030200  0.73099420  0.95555059    -0.00400
C709        C  0.55496820  0.70431286  0.98993201    -0.04000
C710        C  0.57738698  0.69731677  0.02130936     0.03000
C711        C  0.63824810  0.76554074  0.98278937     0.09800
C712        C  0.59154149  0.78073242  0.92014353     0.35700
C713        C  0.57192127  0.67211308  0.05848649     0.39100
C714        C  0.65868393  0.75839746  0.94865820    -0.04400
C715        C  0.68546200  0.77908312  0.94749629    -0.00100
C716        C  0.69279139  0.80560796  0.98174823    -0.04000
C717        C  0.67243316  0.81227332  0.01624890    -0.00200
C718        C  0.64506284  0.79311021  0.01611167    -0.02800
C719        C  0.65232823  0.72927807  0.91502728     0.36500
C720        C  0.67988216  0.83802946  0.05275976     0.40100
C721        C  0.70507790  0.77384700  0.91033152     0.39200
C722        C  0.62382467  0.80169963  0.05048032     0.36100
C723        C  0.62846588  0.70598632  0.04779495     0.36800
C724        C  0.53851436  0.73671715  0.92131519     0.40100
N725        N  0.72069721  0.76983862  0.88062122    -0.38000
N726        N  0.64724431  0.70602347  0.88821953    -0.39600
N727        N  0.68580740  0.85859585  0.08184750    -0.37300
N728        N  0.60688352  0.80841692  0.07791114    -0.39700
N729        N  0.59504850  0.80412731  0.89344350    -0.39500
N730        N  0.52113088  0.74117325  0.89398686    -0.37100
N731        N  0.56755693  0.65213271  0.08823379    -0.38200
N732        N  0.64732594  0.69817647  0.07178323    -0.39800
C733        C  0.83641969  0.75293562  0.01730406    -0.04800
C734        C  0.85861530  0.76193058  0.98668155     0.09400
C735        C  0.85294836  0.79011981  0.95403105    -0.02200
C736        C  0.82539015  0.80925330  0.95212930    -0.00400
C737        C  0.80364605  0.80172214  0.98412053    -0.04000
C738        C  0.80933754  0.77336481  0.01671517     0.03000
C739        C  0.88808390  0.74197474  0.98898672     0.09800
C740        C  0.87564499  0.79967188  0.92252220     0.35700
C741        C  0.78776151  0.76606897  0.05066552     0.39100
C742        C  0.89658050  0.71471719  0.95611227    -0.04400
C743        C  0.92465394  0.69703039  0.95742230     0.02700
C744        C  0.94398213  0.70489614  0.99283228    -0.04000
C745        C  0.93532797  0.73168456  0.02610650    -0.00200
C746        C  0.90770627  0.75067734  0.02376268    -0.02800
C747        C  0.87626207  0.70450859  0.92111706     0.36500
C748        C  0.95446225  0.73884537  0.06344600     0.40100
C749        C  0.93390107  0.67124956  0.92175036     0.39200
C750        C  0.89942024  0.77920996  0.05721047     0.36100
C751        C  0.84147463  0.72250915  0.04943368     0.36800
C752        C  0.81924733  0.83613635  0.91659157     0.40100
N753        N  0.94141255  0.65075835  0.89334322    -0.38000
N754        N  0.86007657  0.69638001  0.89317321    -0.39600
N755        N  0.96971511  0.74443787  0.09328076    -0.37300
N756        N  0.89271341  0.80187933  0.08394120    -0.39700
N757        N  0.89376687  0.80706611  0.89734402    -0.39500
N758        N  0.81434814  0.85748477  0.88816510    -0.37100
N759        N  0.77052884  0.76031364  0.07773602    -0.38200
N760        N  0.84553014  0.69821581  0.07502510    -0.39800
C761        C  0.91922988  0.23974439  0.51727784    -0.04800
C762        C  0.89743784  0.25085549  0.48663329     0.09400
C763        C  0.90323840  0.28151761  0.45715843    -0.02200
C764        C  0.93055229  0.30081928  0.45833963    -0.00400
C765        C  0.95163290  0.29152434  0.49094150    -0.04000
C766        C  0.94573676  0.26081533  0.52047744     0.03000
C767        C  0.86803615  0.23112384  0.48665351     0.09800
C768        C  0.88094357  0.29359874  0.42588585     0.35700
C769        C  0.96626009  0.25166784  0.55541756     0.39100
C770        C  0.84881469  0.23655227  0.52268195    -0.04400
C771        C  0.82192355  0.21636022  0.52418670     0.02700
C772        C  0.81286249  0.19307408  0.48813799    -0.04000
C773        C  0.83163472  0.18854152  0.45148749    -0.00200
C774        C  0.85948831  0.20653504  0.45131584    -0.02800
C775        C  0.85666227  0.26316776  0.55819674     0.36500
C776        C  0.82206254  0.16587919  0.41362824     0.40100
C777        C  0.80439105  0.21789009  0.56389771     0.39200
C778        C  0.87948207  0.19942426  0.41499052     0.36100
C779        C  0.91431340  0.20647272  0.54559059     0.36800
C780        C  0.93727730  0.32950392  0.42506314     0.40100
N781        N  0.79099421  0.21860140  0.59617582    -0.38000
N782        N  0.86293835  0.28447712  0.58642592    -0.39600
N783        N  0.81430469  0.14810809  0.38325237    -0.37300
N784        N  0.89544676  0.19379953  0.38600506    -0.39700
N785        N  0.86320504  0.30319946  0.40084411    -0.39500
N786        N  0.94283755  0.35217591  0.39838969    -0.37100
N787        N  0.98220673  0.24401753  0.58374309    -0.38200
N788        N  0.91036070  0.17987019  0.56803583    -0.39800
C789        C  0.60723317  0.28197585  0.44621994    -0.04800
C790        C  0.61716556  0.25755453  0.48049112     0.09400
C791        C  0.59908425  0.25193836  0.51759804    -0.02200
C792        C  0.57224710  0.27243481  0.52168255    -0.00400
C793        C  0.56195432  0.29598641  0.48700874    -0.04000
C794        C  0.57934488  0.30024400  0.44894986     0.03000
C795        C  0.64719568  0.23913554  0.47902431     0.09800
C796        C  0.60819664  0.22507892  0.55176290     0.35700
C797        C  0.56846123  0.32334662  0.41256039     0.39100
C798        C  0.66888654  0.25132122  0.50934991    -0.04400
C799        C  0.69589931  0.23101690  0.51214601     0.02700
C800        C  0.70233874  0.19984252  0.48265678    -0.04000
C801        C  0.68135120  0.18954808  0.45015497    -0.00200
C802        C  0.65359141  0.20828171  0.44925719    -0.02800
C803        C  0.66309027  0.28441303  0.53847388     0.36500
C804        C  0.68835590  0.15986631  0.41727660     0.40100
C805        C  0.71620793  0.24114090  0.54709360     0.39200
C806        C  0.63130364  0.19504627  0.41849936     0.36100
C807        C  0.62587461  0.28881535  0.40849872     0.36800
C808        C  0.55622034  0.27127224  0.56277665     0.40100
N809        N  0.73192009  0.24968610  0.57545071    -0.38000
N810        N  0.65838433  0.31070733  0.56175326    -0.39600
N811        N  0.69397765  0.13624356  0.39102324    -0.37300
N812        N  0.61350988  0.18453203  0.39395887    -0.39700
N813        N  0.61548659  0.20357681  0.57890029    -0.39500
N814        N  0.54400946  0.27091306  0.59608129    -0.37100
N815        N  0.55965691  0.34168690  0.38353904    -0.38200
N816        N  0.64071464  0.29421598  0.37834125    -0.39800
C817        C  0.91188542  0.24895535  0.00074936    -0.04800
C818        C  0.88893435  0.26414905  0.02710097     0.09400
C819        C  0.89381184  0.29796039  0.05300718    -0.02200
C820        C  0.92156769  0.31620922  0.05293906    -0.00400
C821        C  0.94414476  0.30250710  0.02444386    -0.04000
C822        C  0.93900910  0.26857246  0.99839189     0.03000
C823        C  0.85952299  0.24459574  0.02691291     0.09800
C824        C  0.87000563  0.31440555  0.07911680     0.35700
C825        C  0.96103969  0.25410563  0.96785751     0.39100
C826        C  0.85023121  0.22283531  0.06355811    -0.04400
C827        C  0.82298618  0.20333282  0.06254983     0.02700
C828        C  0.80526093  0.20461522  0.02449266    -0.04000
C829        C  0.81486116  0.22556818  0.98751665    -0.00200
C830        C  0.84148732  0.24637349  0.98914457    -0.02800
C831        C  0.86896531  0.22000185  0.10199638     0.36500
C832        C  0.79817344  0.22397193  0.94693051     0.40100
C833        C  0.81329362  0.18152571  0.10045955     0.39200
C834        C  0.85047456  0.26946617  0.95178595     0.36100
C835        C  0.90743099  0.21307308  0.97568281     0.36800
C836        C  0.92703623  0.34838306  0.08329293     0.40100
N837        N  0.80553171  0.16405356  0.13063803    -0.38000
N838        N  0.88394713  0.21787841  0.13264873    -0.39600
N839        N  0.78536841  0.22219227  0.91411159    -0.37300
N840        N  0.85769327  0.28787026  0.92201126    -0.39700
N841        N  0.85092035  0.32750257  0.09976361    -0.39500
N842        N  0.93138989  0.37392949  0.10765865    -0.37100
N843        N  0.97816643  0.24171258  0.94326019    -0.38200
N844        N  0.90380202  0.18449621  0.95571345    -0.39800
C845        C  0.59148182  0.26013240  0.99238985    -0.04800
C846        C  0.61042230  0.26642660  0.02854750     0.09400
C847        C  0.60149425  0.29185613  0.06299024    -0.02200
C848        C  0.57344971  0.30976634  0.06191071    -0.00400
C849        C  0.55494274  0.30440945  0.02507758    -0.04000
C850        C  0.56442740  0.28032644  0.98982866     0.03000
C851        C  0.64003988  0.24690369  0.02955811     0.09800
C852        C  0.62141018  0.30018593  0.09908287     0.35700
C853        C  0.54729277  0.27821973  0.94970156     0.39100
C854        C  0.66204680  0.25822120  0.99972540    -0.04400
C855        C  0.68894992  0.23753847  0.99767968     0.02700
C856        C  0.69503613  0.20712621  0.02769926    -0.04000
C857        C  0.67374870  0.19790707  0.05976758    -0.00200
C858        C  0.64593766  0.21650902  0.05945274    -0.02800
C859        C  0.65692525  0.29120943  0.97093418     0.36500
C860        C  0.68093392  0.17099991  0.09471065     0.40100
C861        C  0.70985696  0.24701129  0.96359185     0.39200
C862        C  0.62315426  0.20392204  0.08937371     0.36100
C863        C  0.59991114  0.23286562  0.95770018     0.36800
C864        C  0.56346716  0.33327256  0.09896955     0.40100
N865        N  0.72620824  0.25496460  0.93608134    -0.38000
N866        N  0.65288732  0.31757636  0.94805546    -0.39600
N867        N  0.68660838  0.15045202  0.12352520    -0.37300
N868        N  0.60485295  0.19389888  0.11302816    -0.39700
N869        N  0.63736829  0.30691960  0.12777405    -0.39500
N870        N  0.55541107  0.35157954  0.12884566    -0.37100
N871        N  0.53421943  0.27709111  0.91708973    -0.38200
N872        N  0.60666621  0.21102372  0.93014782    -0.39800
C873        C  0.76192517  0.03612060  0.79581563    -0.04800
C874        C  0.74765964  0.00518299  0.77351715     0.09400
C875        C  0.73356907  0.97572036  0.79763091    -0.02200
C876        C  0.73414851  0.97676390  0.84391039    -0.00400
C877        C  0.74840025  0.00774019  0.86633725    -0.04000
C878        C  0.76225347  0.03745989  0.84216227     0.03000
C879        C  0.74801545  0.00304112  0.72446124     0.09800
C880        C  0.71858533  0.94423229  0.77464030     0.35700
C881        C  0.77621686  0.06987224  0.86499120     0.39100
C882        C  0.77150008  0.98419351  0.70259800    -0.04400
C883        C  0.77165780  0.98119415  0.65634644     0.02700
C884        C  0.74871646  0.99848953  0.63125972    -0.04000
C885        C  0.72529403  0.01788075  0.65370377    -0.00200
C886        C  0.72468691  0.01919746  0.70003960    -0.02800
C887        C  0.79544123  0.96749093  0.72798745     0.36500
C888        C  0.70216545  0.03785758  0.62961880     0.40100
C889        C  0.79511866  0.95910960  0.63510733     0.39200
C890        C  0.69985938  0.03690270  0.72282821     0.36100
C891        C  0.77618077  0.06657597  0.77093082     0.36800
C892        C  0.72112792  0.94501863  0.86837258     0.40100
N893        N  0.81383642  0.94142514  0.61828550    -0.38000
N894        N  0.81454293  0.95429031  0.74830075    -0.39600
N895        N  0.68371926  0.05393557  0.61057827    -0.37300
N896        N  0.67994073  0.05064807  0.74104969    -0.39700
N897        N  0.70654621  0.91926056  0.75618098    -0.39500
N898        N  0.71087760  0.91952972  0.88774074    -0.37100
N899        N  0.78725463  0.09573379  0.88333454    -0.38200
N900        N  0.78754315  0.09084675  0.75099871    -0.39800
C901        C  0.73230364  0.02487959  0.20123711    -0.04800
C902        C  0.75212476  0.00026768  0.22369174     0.09400
C903        C  0.77123198  0.97536041  0.19975225    -0.02200
C904        C  0.77077808  0.97533369  0.15340838    -0.00400
C905        C  0.75083834  0.99990943  0.13069375    -0.04000
C906        C  0.73122599  0.02415616  0.15498172     0.03000
C907        C  0.75201562  0.99937326  0.27275148     0.09800
C908        C  0.79100301  0.94925412  0.22302400     0.35700
C909        C  0.70968764  0.04820831  0.13248703     0.39100
C910        C  0.73012967  0.97827560  0.29489823    -0.04400
C911        C  0.73004996  0.97690533  0.34113871     0.02700
C912        C  0.75192254  0.99676261  0.36572381    -0.04000
C913        C  0.77379147  0.01810402  0.34327206    -0.00200
C914        C  0.77376490  0.01938252  0.29696207    -0.02800
C915        C  0.70768697  0.95782681  0.26990156     0.36500
C916        C  0.79587091  0.03980534  0.36762706     0.40100
C917        C  0.70774847  0.95419653  0.36319350     0.39200
C918        C  0.79591777  0.04168029  0.27404513     0.36100
C919        C  0.71306379  0.05106528  0.22589642     0.36800
C920        C  0.78979482  0.94847646  0.12929775     0.40100
N921        N  0.68989707  0.93634799  0.38097018    -0.38000
N922        N  0.68974481  0.94167967  0.24990570    -0.39600
N923        N  0.81354161  0.05694539  0.38711502    -0.37300
N924        N  0.81356419  0.05941771  0.25566427    -0.39700
N925        N  0.80670338  0.92847541  0.24177822    -0.39500
N926        N  0.80487738  0.92691974  0.11009969    -0.37100
N927        N  0.69219100  0.06648062  0.11401723    -0.38200
N928        N  0.69778639  0.07198840  0.24561273    -0.39800
loop_ 
_geom_bond_atom_site_label_1 
_geom_bond_atom_site_label_2 
_geom_bond_distance 
_geom_bond_site_symmetry_2 
_ccdc_geom_bond_type 
O1           Ni9   1.918   1_554  S
O1           C11   1.281       .  A
O2           Ni9   1.919       .  S
O2           C12   1.281       .  A
O3           Ni9   1.921   1_554  S
O3           C13   1.283       .  A
O4           Ni9   1.922   1_565  S
O4           C14   1.283       .  A
O5          Ni10   1.913   1_565  S
O5           C14   1.281       .  A
O6          Ni10   1.921   1_554  S
O6           C13   1.282       .  A
O7          Ni10   1.914       .  S
O7           C12   1.280       .  A
O8          Ni10   1.912   1_554  S
O8           C11   1.281       .  A
Ni9         Ni10   2.387       .  S
C11         C441   1.489   1_545  S
C12         C413   1.481       .  S
C13          C33   1.486       .  S
C14          C49   1.483       .  S
O15         Ni23   1.912       .  S
O15          C25   1.281       .  A
O16         Ni23   1.914       .  S
O16          C26   1.281       .  A
O17         Ni23   1.919   1_545  S
O17          C27   1.282       .  A
O18         Ni23   1.920       .  S
O18          C28   1.282       .  A
O19         Ni24   1.924       .  S
O19          C28   1.283       .  A
O20         Ni24   1.919   1_545  S
O20          C27   1.282       .  A
O21         Ni24   1.917       .  S
O21          C26   1.282       .  A
O22         Ni24   1.917       .  S
O22          C25   1.281       .  A
Ni23        Ni24   2.383       .  S
C25         C448   1.490       .  S
C26         C420   1.499       .  S
C27          C40   1.483       .  S
C28          C60   1.488       .  S
C29         C364   1.485       .  S
C29          C30   1.401       .  A
C29          C34   1.401       .  A
C30          C31   1.405       .  A
C30          H35   1.084       .  S
C31         C392   1.496       .  S
C31          C32   1.408       .  A
C32          C33   1.410       .  A
C32          H36   1.084       .  S
C33          C34   1.407       .  A
C34          H37   1.083       .  S
C38         C308   1.489       .  S
C38          C39   1.403       .  A
C38          C43   1.404       .  A
C39          C40   1.406       .  A
C39          H44   1.085       .  S
C40          C41   1.406       .  A
C41          C42   1.405       .  A
C41          H45   1.083       .  S
C42         C336   1.496       .  S
C42          C43   1.405       .  A
C43          H46   1.084       .  S
C47         C273   1.495       .  S
C47          C48   1.406       .  A
C47          C52   1.406       .  A
C48          C49   1.405       .  A
C48          H53   1.083       .  S
C49          C50   1.406       .  A
C50          C51   1.404       .  A
C50          H54   1.083       .  S
C51         C252   1.497       .  S
C51          C52   1.405       .  A
C52          H55   1.084       .  S
C56         C196   1.489       .  S
C56          C57   1.405       .  A
C56          C61   1.402       .  A
C57          C58   1.407       .  A
C57          H62   1.083       .  S
C58         C217   1.508       .  S
C58          C59   1.412       .  A
C59          C60   1.409       .  A
C59          H63   1.083       .  S
C60          C61   1.406       .  A
C61          H64   1.084       .  S
C65         C245   1.499       .  S
C65          C66   1.407       .  A
C65          C70   1.408   1_455  A
C66          C67   1.406   1_455  A
C66          H71   1.083       .  S
C67         C113   1.481       .  S
C67         C532   1.402       .  A
C68          C69   1.401       .  A
C68         C531   1.402       .  A
C68          H72   1.083   1_556  S
C69         C280   1.490       .  S
C69         C534   1.405       .  A
C70         C533   1.405       .  A
C70          H73   1.084       .  S
C74         C189   1.494       .  S
C74          C79   1.406       .  A
C74         C539   1.406   1_455  A
C75          C76   1.403       .  A
C75         C538   1.406       .  A
C75          H80   1.084       .  S
C76         C224   1.489       .  S
C76          C77   1.403       .  A
C77          C78   1.407       .  A
C77          H81   1.084       .  S
C78         C127   1.484       .  S
C78         C543   1.406       .  A
C79         C542   1.406   1_455  A
C79          H82   1.083       .  S
C83         C357   1.501       .  S
C83          C88   1.409       .  A
C83         C548   1.408       .  A
C84          C85   1.403   1_655  A
C84         C547   1.408       .  A
C84          H89   1.083   1_655  S
C85         C385   1.487       .  S
C85          C86   1.400       .  A
C86          C87   1.405   1_455  A
C86          H90   1.083       .  S
C87         C114   1.483       .  S
C87         C552   1.407       .  A
C88         C551   1.407       .  A
C88          H91   1.084       .  S
C92         C301   1.496       .  S
C92          C93   1.404       .  A
C92          C97   1.407       .  A
C93         C558   1.403       .  A
C93          H98   1.084       .  S
C94         C329   1.487       .  S
C94          C95   1.402       .  A
C94         C557   1.403       .  A
C95         C560   1.405       .  A
C95          H99   1.084       .  S
C96         C128   1.484       .  S
C96          C97   1.407       .  A
C96         C559   1.405       .  A
C97         H100   1.083       .  S
O101       Ni109   1.913       .  S
O101        C575   1.281       .  A
O102       Ni109   1.914   1_556  S
O102        C576   1.280   1_455  A
O103       Ni109   1.912   1_556  S
O103        C113   1.280   1_455  A
O104       Ni109   1.916       .  S
O104        C114   1.282   1_455  A
O105       Ni110   1.920       .  S
O105        C578   1.282       .  A
O106       Ni110   1.919       .  S
O106        C577   1.283   1_554  A
O107       Ni110   1.919   1_556  S
O107        C112   1.281       .  A
O108       Ni110   1.919       .  S
O108        C111   1.282       .  A
Ni109      Ni574   2.387   1_455  S
Ni110      Ni573   2.387       .  S
C111        O565   1.281       .  A
C111        C161   1.489       .  S
C112        O566   1.280       .  A
C112        C140   1.482       .  S
C113        O570   1.283   1_556  A
C114        O569   1.282       .  A
O115       Ni123   1.917       .  S
O115        C125   1.282       .  A
O116       Ni123   1.915       .  S
O116        C126   1.281       .  A
O117       Ni123   1.915       .  S
O117        C127   1.281       .  A
O118       Ni123   1.918       .  S
O118        C128   1.282       .  A
O119       Ni124   1.920       .  S
O119        C592   1.282       .  A
O120       Ni124   1.923       .  S
O120        C591   1.283   1_455  A
O121       Ni124   1.919       .  S
O121        C590   1.281   1_455  A
O122       Ni124   1.918       .  S
O122        C589   1.281       .  A
Ni123      Ni588   2.384       .  S
Ni124      Ni587   2.384   1_455  S
C125        O586   1.281       .  A
C125        C168   1.499       .  S
C126        O585   1.281       .  A
C126        C133   1.488       .  S
C127        O584   1.283       .  A
C128        O583   1.282       .  A
C129        C130   1.410       .  A
C129        C134   1.410       .  A
C129        C147   1.451       .  S
C130        C135   1.496       .  S
C130        C595   1.411       .  A
C131        C132   1.412       .  A
C131        C594   1.411   1_455  A
C131        C136   1.451       .  S
C132        C597   1.416   1_455  A
C132        C148   1.451       .  S
C133        C134   1.416       .  A
C133        C596   1.416       .  A
C134        C137   1.452       .  S
C135        C138   1.411       .  A
C135        C606   1.411       .  A
C136        N153   1.157       .  T
C137        N155   1.157       .  T
C138        C139   1.411       .  A
C138        C143   1.450       .  S
C139        C140   1.413       .  A
C139        C145   1.451       .  S
C140        C605   1.414       .  A
C141        C142   1.410       .  A
C141        C604   1.414   1_455  A
C141        C144   1.452       .  S
C142        C599   1.411   1_455  A
C142        C146   1.451       .  S
C143        N150   1.157       .  T
C144        N151   1.157       .  T
C145        N149   1.157       .  T
C146        N152   1.157       .  T
C147        N156   1.157       .  T
C148        N154   1.158       .  T
C157        C162   1.409       .  A
C157        C622   1.410       .  A
C157        C175   1.451       .  S
C158        C163   1.496       .  S
C158        C159   1.411       .  A
C158        C621   1.410       .  A
C159        C160   1.411       .  A
C159        C164   1.451       .  S
C160        C161   1.416       .  A
C160        C176   1.451       .  S
C161        C626   1.417       .  A
C162        C625   1.417       .  A
C162        C165   1.451       .  S
C163        C170   1.408       .  A
C163        C630   1.409       .  A
C164        N181   1.157       .  T
C165        N183   1.157       .  T
C166        C167   1.412       .  A
C166        C627   1.409       .  A
C166        C171   1.451       .  S
C167        C632   1.422       .  A
C167        C173   1.451       .  S
C168        C169   1.421       .  A
C168        C631   1.422       .  A
C169        C170   1.410       .  A
C169        C172   1.451       .  S
C170        C174   1.452       .  S
C171        N178   1.157       .  T
C172        N179   1.157       .  T
C173        N177   1.157       .  T
C174        N180   1.157       .  T
C175        N184   1.157       .  T
C176        N182   1.157       .  T
C185        C186   1.413       .  A
C185        C190   1.410       .  A
C185        C203   1.451       .  S
C186        C191   1.502       .  S
C186        C187   1.412       .  A
C187        C188   1.412       .  A
C187        C192   1.451       .  S
C188        C189   1.416       .  A
C188        C204   1.450       .  S
C189        C190   1.414       .  A
C190        C193   1.450       .  S
C191        C194   1.413       .  A
C191        C198   1.414       .  A
C192        N209   1.157       .  T
C193        N211   1.157       .  T
C194        C195   1.408       .  A
C194        C199   1.451       .  S
C195        C196   1.412       .  A
C195        C201   1.450       .  S
C196        C197   1.413       .  A
C197        C198   1.413       .  A
C197        C200   1.449       .  S
C198        C202   1.450       .  S
C199        N206   1.157       .  T
C200        N207   1.157       .  T
C201        N205   1.157       .  T
C202        N208   1.157       .  T
C203        N212   1.157       .  T
C204        N210   1.157       .  T
C213        C214   1.410       .  A
C213        C218   1.413       .  A
C213        C231   1.451       .  S
C214        C219   1.502       .  S
C214        C215   1.409       .  A
C215        C216   1.413       .  A
C215        C220   1.452       .  S
C216        C217   1.422       .  A
C216        C232   1.448       .  S
C217        C218   1.420       .  A
C218        C221   1.451       .  S
C219        C222   1.414       .  A
C219        C226   1.412       .  A
C220        N237   1.157       .  T
C221        N239   1.157       .  T
C222        C223   1.412       .  A
C222        C227   1.451       .  S
C223        C224   1.412       .  A
C223        C229   1.450       .  S
C224        C225   1.413       .  A
C225        C226   1.412       .  A
C225        C228   1.451       .  S
C226        C230   1.450       .  S
C227        N234   1.157       .  T
C228        N235   1.157       .  T
C229        N233   1.157       .  T
C230        N236   1.157       .  T
C231        N240   1.157       .  T
C232        N238   1.157       .  T
C241        C242   1.413   1_554  A
C241        C246   1.411       .  A
C241        C259   1.451       .  S
C242        C247   1.504       .  S
C242        C243   1.413       .  A
C243        C244   1.413       .  A
C243        C248   1.451       .  S
C244        C245   1.417       .  A
C244        C260   1.451       .  S
C245        C246   1.417   1_556  A
C246        C249   1.451       .  S
C247        C250   1.413       .  A
C247        C254   1.413   1_556  A
C248        N265   1.157       .  T
C249        N267   1.157       .  T
C250        C251   1.413       .  A
C250        C255   1.450       .  S
C251        C252   1.415       .  A
C251        C257   1.451       .  S
C252        C253   1.417   1_556  A
C253        C254   1.411       .  A
C253        C256   1.452       .  S
C254        C258   1.451       .  S
C255        N262   1.157       .  T
C256        N263   1.157       .  T
C257        N261   1.157       .  T
C258        N264   1.157       .  T
C259        N268   1.157       .  T
C260        N266   1.157       .  T
C269        C270   1.413   1_554  A
C269        C274   1.412       .  A
C269        C287   1.451       .  S
C270        C275   1.501       .  S
C270        C271   1.413       .  A
C271        C272   1.411       .  A
C271        C276   1.451       .  S
C272        C273   1.416       .  A
C272        C288   1.451       .  S
C273        C274   1.416   1_556  A
C274        C277   1.451       .  S
C275        C278   1.412       .  A
C275        C282   1.414   1_556  A
C276        N293   1.157       .  T
C277        N295   1.157       .  T
C278        C279   1.410       .  A
C278        C283   1.451       .  S
C279        C280   1.415       .  A
C279        C285   1.452       .  S
C280        C281   1.413   1_556  A
C281        C282   1.412       .  A
C281        C284   1.451       .  S
C282        C286   1.451       .  S
C283        N290   1.157       .  T
C284        N291   1.157       .  T
C285        N289   1.157       .  T
C286        N292   1.157       .  T
C287        N296   1.157       .  T
C288        N294   1.157       .  T
C297        C298   1.413       .  A
C297        C302   1.411       .  A
C297        C315   1.452       .  S
C298        C303   1.502       .  S
C298        C299   1.412       .  A
C299        C300   1.411       .  A
C299        C304   1.451       .  S
C300        C301   1.416       .  A
C300        C316   1.450       .  S
C301        C302   1.415       .  A
C302        C305   1.449       .  S
C303        C306   1.414       .  A
C303        C310   1.414       .  A
C304        N321   1.157       .  T
C305        N323   1.157       .  T
C306        C307   1.410       .  A
C306        C311   1.451       .  S
C307        C308   1.412       .  A
C307        C313   1.449       .  S
C308        C309   1.413       .  A
C309        C310   1.412       .  A
C309        C312   1.450       .  S
C310        C314   1.450       .  S
C311        N318   1.157       .  T
C312        N319   1.157       .  T
C313        N317   1.157       .  T
C314        N320   1.157       .  T
C315        N324   1.157       .  T
C316        N322   1.157       .  T
C325        C326   1.414       .  A
C325        C330   1.412       .  A
C325        C343   1.450       .  S
C326        C331   1.500       .  S
C326        C327   1.414       .  A
C327        C328   1.408       .  A
C327        C332   1.452       .  S
C328        C329   1.411       .  A
C328        C344   1.450       .  S
C329        C330   1.413       .  A
C330        C333   1.451       .  S
C331        C334   1.412       .  A
C331        C338   1.412       .  A
C332        N349   1.157       .  T
C333        N351   1.157       .  T
C334        C335   1.410       .  A
C334        C339   1.452       .  S
C335        C336   1.415       .  A
C335        C341   1.449       .  S
C336        C337   1.417       .  A
C337        C338   1.412       .  A
C337        C340   1.451       .  S
C338        C342   1.451       .  S
C339        N346   1.157       .  T
C340        N347   1.157       .  T
C341        N345   1.156       .  T
C342        N348   1.157       .  T
C343        N352   1.157       .  T
C344        N350   1.157       .  T
C353        C354   1.410       .  A
C353        C358   1.411   1_554  A
C353        C371   1.452   1_554  S
C354        C359   1.500       .  S
C354        C355   1.410       .  A
C355        C356   1.412       .  A
C355        C360   1.451       .  S
C356        C357   1.419       .  A
C356        C372   1.451       .  S
C357        C358   1.418   1_554  A
C358        C361   1.449       .  S
C359        C362   1.413       .  A
C359        C366   1.413   1_554  A
C360        N377   1.157       .  T
C361        N379   1.156       .  T
C362        C363   1.411       .  A
C362        C367   1.450       .  S
C363        C364   1.411       .  A
C363        C369   1.450       .  S
C364        C365   1.411   1_554  A
C365        C366   1.409       .  A
C365        C368   1.450       .  S
C366        C370   1.451       .  S
C367        N374   1.157       .  T
C368        N375   1.157       .  T
C369        N373   1.157       .  T
C370        N376   1.157       .  T
C371        N380   1.157       .  T
C372        N378   1.157       .  T
C381        C382   1.413   1_556  A
C381        C386   1.409       .  A
C381        C399   1.451       .  S
C382        C387   1.499       .  S
C382        C383   1.413       .  A
C383        C384   1.411       .  A
C383        C388   1.450       .  S
C384        C385   1.412       .  A
C384        C400   1.450       .  S
C385        C386   1.412   1_554  A
C386        C389   1.450       .  S
C387        C390   1.411   1_554  A
C387        C394   1.411       .  A
C388        N405   1.157       .  T
C389        N407   1.157       .  T
C390        C391   1.410       .  A
C390        C395   1.451       .  S
C391        C392   1.416   1_556  A
C391        C397   1.449       .  S
C392        C393   1.415       .  A
C393        C394   1.412       .  A
C393        C396   1.448       .  S
C394        C398   1.451       .  S
C395        N402   1.157       .  T
C396        N403   1.156       .  T
C397        N401   1.157       .  T
C398        N404   1.157       .  T
C399        N408   1.157       .  T
C400        N406   1.157       .  T
C409        C410   1.412       .  A
C409        C414   1.411       .  A
C409        C427   1.450       .  S
C410        C415   1.494       .  S
C410        C411   1.410   1_545  A
C411        C412   1.409       .  A
C411        C416   1.451       .  S
C412        C413   1.414   1_565  A
C412        C428   1.452       .  S
C413        C414   1.412       .  A
C414        C417   1.451       .  S
C415        C418   1.408   1_545  A
C415        C422   1.407       .  A
C416        N433   1.157       .  T
C417        N435   1.157       .  T
C418        C419   1.411       .  A
C418        C423   1.451       .  S
C419        C420   1.421       .  A
C419        C425   1.451       .  S
C420        C421   1.423   1_565  A
C421        C422   1.411       .  A
C421        C424   1.452       .  S
C422        C426   1.451       .  S
C423        N430   1.157       .  T
C424        N431   1.158       .  T
C425        N429   1.157       .  T
C426        N432   1.157       .  T
C427        N436   1.157       .  T
C428        N434   1.157       .  T
C437        C438   1.409       .  A
C437        C442   1.409       .  A
C437        C455   1.451       .  S
C438        C443   1.494   1_545  S
C438        C439   1.410   1_545  A
C439        C440   1.411       .  A
C439        C444   1.451       .  S
C440        C441   1.416       .  A
C440        C456   1.451       .  S
C441        C442   1.417   1_565  A
C442        C445   1.450       .  S
C443        C446   1.409       .  A
C443        C450   1.409   1_565  A
C444        N461   1.157       .  T
C445        N463   1.157       .  T
C446        C447   1.409       .  A
C446        C451   1.451       .  S
C447        C448   1.417       .  A
C447        C453   1.451       .  S
C448        C449   1.418   1_565  A
C449        C450   1.411       .  A
C449        C452   1.451       .  S
C450        C454   1.451       .  S
C451        N458   1.157       .  T
C452        N459   1.157       .  T
C453        N457   1.157       .  T
C454        N460   1.157       .  T
C455        N464   1.157       .  T
C456        N462   1.157       .  T
O465       Ni473   1.918   1_554  S
O465        C475   1.281       .  A
O466       Ni473   1.919       .  S
O466        C476   1.281       .  A
O467       Ni473   1.921   1_554  S
O467        C477   1.283       .  A
O468       Ni473   1.922   1_565  S
O468        C478   1.283       .  A
O469       Ni474   1.913   1_565  S
O469        C478   1.281       .  A
O470       Ni474   1.921   1_554  S
O470        C477   1.282       .  A
O471       Ni474   1.914       .  S
O471        C476   1.280       .  A
O472       Ni474   1.912   1_554  S
O472        C475   1.281       .  A
Ni473      Ni474   2.387       .  S
C475        C905   1.489   1_545  S
C476        C877   1.481       .  S
C477        C497   1.486       .  S
C478        C513   1.483       .  S
O479       Ni487   1.912       .  S
O479        C489   1.281       .  A
O480       Ni487   1.914       .  S
O480        C490   1.281       .  A
O481       Ni487   1.919   1_545  S
O481        C491   1.282       .  A
O482       Ni487   1.920       .  S
O482        C492   1.282       .  A
O483       Ni488   1.924       .  S
O483        C492   1.283       .  A
O484       Ni488   1.919   1_545  S
O484        C491   1.282       .  A
O485       Ni488   1.917       .  S
O485        C490   1.282       .  A
O486       Ni488   1.917       .  S
O486        C489   1.281       .  A
Ni487      Ni488   2.383       .  S
C489        C912   1.490       .  S
C490        C884   1.499       .  S
C491        C504   1.483       .  S
C492        C524   1.488       .  S
C493        C828   1.485       .  S
C493        C494   1.401       .  A
C493        C498   1.401       .  A
C494        C495   1.405       .  A
C494        H499   1.084       .  S
C495        C856   1.496       .  S
C495        C496   1.408       .  A
C496        C497   1.410       .  A
C496        H500   1.084       .  S
C497        C498   1.407       .  A
C498        H501   1.083       .  S
C502        C772   1.489       .  S
C502        C503   1.403       .  A
C502        C507   1.404       .  A
C503        C504   1.406       .  A
C503        H508   1.085       .  S
C504        C505   1.406       .  A
C505        C506   1.405       .  A
C505        H509   1.083       .  S
C506        C800   1.496       .  S
C506        C507   1.405       .  A
C507        H510   1.084       .  S
C511        C737   1.495       .  S
C511        C512   1.406       .  A
C511        C516   1.406       .  A
C512        C513   1.405       .  A
C512        H517   1.083       .  S
C513        C514   1.406       .  A
C514        C515   1.404       .  A
C514        H518   1.083       .  S
C515        C716   1.497       .  S
C515        C516   1.405       .  A
C516        H519   1.084       .  S
C520        C660   1.489       .  S
C520        C521   1.405       .  A
C520        C525   1.402       .  A
C521        C522   1.407       .  A
C521        H526   1.083       .  S
C522        C681   1.508       .  S
C522        C523   1.412       .  A
C523        C524   1.409       .  A
C523        H527   1.083       .  S
C524        C525   1.406       .  A
C525        H528   1.084       .  S
C529        C709   1.499       .  S
C529        C530   1.407       .  A
C529        C534   1.408       .  A
C530        C531   1.406       .  A
C530        H535   1.083       .  S
C531        C577   1.481       .  S
C532        C533   1.401       .  A
C532        H536   1.083   1_556  S
C533        C744   1.490       .  S
C534        H537   1.084       .  S
C538        C653   1.494       .  S
C538        C543   1.406       .  A
C539        C540   1.403       .  A
C539        H544   1.084       .  S
C540        C688   1.489       .  S
C540        C541   1.403       .  A
C541        C542   1.407       .  A
C541        H545   1.084       .  S
C542        C591   1.484       .  S
C543        H546   1.083       .  S
C547        C821   1.501       .  S
C547        C552   1.409       .  A
C548        C549   1.403       .  A
C548        H553   1.083       .  S
C549        C849   1.487       .  S
C549        C550   1.400       .  A
C550        C551   1.405       .  A
C550        H554   1.083       .  S
C551        C578   1.483       .  S
C552        H555   1.084       .  S
C556        C765   1.496       .  S
C556        C557   1.404   1_655  A
C556        C561   1.407       .  A
C557        H562   1.084       .  S
C558        C793   1.487       .  S
C558        C559   1.402       .  A
C559        H563   1.084       .  S
C560        C592   1.484       .  S
C560        C561   1.407   1_455  A
C561        H564   1.083       .  S
O565       Ni573   1.913       .  S
O566       Ni573   1.914   1_556  S
O567       Ni573   1.912   1_556  S
O567        C577   1.280       .  A
O568       Ni573   1.916       .  S
O568        C578   1.282       .  A
O569       Ni574   1.920       .  S
O570       Ni574   1.919       .  S
O571       Ni574   1.919   1_556  S
O571        C576   1.281       .  A
O572       Ni574   1.919       .  S
O572        C575   1.282   1_655  A
C575        C625   1.489       .  S
C576        C604   1.482       .  S
O579       Ni587   1.917       .  S
O579        C589   1.282   1_655  A
O580       Ni587   1.915       .  S
O580        C590   1.281       .  A
O581       Ni587   1.915       .  S
O581        C591   1.281       .  A
O582       Ni587   1.918       .  S
O582        C592   1.282   1_655  A
O583       Ni588   1.920       .  S
O584       Ni588   1.923       .  S
O585       Ni588   1.919       .  S
O586       Ni588   1.918       .  S
C589        C632   1.499       .  S
C590        C597   1.488       .  S
C593        C594   1.410       .  A
C593        C598   1.410       .  A
C593        C611   1.451       .  S
C594        C599   1.496       .  S
C595        C596   1.412       .  A
C595        C600   1.451       .  S
C596        C612   1.451       .  S
C597        C598   1.416       .  A
C598        C601   1.452       .  S
C599        C602   1.411       .  A
C600        N617   1.157       .  T
C601        N619   1.157       .  T
C602        C603   1.411       .  A
C602        C607   1.450       .  S
C603        C604   1.413       .  A
C603        C609   1.451       .  S
C605        C606   1.410       .  A
C605        C608   1.452       .  S
C606        C610   1.451       .  S
C607        N614   1.157       .  T
C608        N615   1.157       .  T
C609        N613   1.157       .  T
C610        N616   1.157       .  T
C611        N620   1.157       .  T
C612        N618   1.158       .  T
C621        C626   1.409       .  A
C621        C639   1.451       .  S
C622        C627   1.496       .  S
C622        C623   1.411   1_455  A
C623        C624   1.411       .  A
C623        C628   1.451       .  S
C624        C625   1.416   1_655  A
C624        C640   1.451       .  S
C626        C629   1.451       .  S
C627        C634   1.408   1_455  A
C628        N645   1.157       .  T
C629        N647   1.157       .  T
C630        C631   1.412       .  A
C630        C635   1.451       .  S
C631        C637   1.451       .  S
C632        C633   1.421   1_455  A
C633        C634   1.410       .  A
C633        C636   1.451       .  S
C634        C638   1.452       .  S
C635        N642   1.157       .  T
C636        N643   1.157       .  T
C637        N641   1.157       .  T
C638        N644   1.157       .  T
C639        N648   1.157       .  T
C640        N646   1.157       .  T
C649        C650   1.413       .  A
C649        C654   1.410       .  A
C649        C667   1.451       .  S
C650        C655   1.502       .  S
C650        C651   1.412       .  A
C651        C652   1.412       .  A
C651        C656   1.451       .  S
C652        C653   1.416       .  A
C652        C668   1.450       .  S
C653        C654   1.414       .  A
C654        C657   1.450       .  S
C655        C658   1.413       .  A
C655        C662   1.414       .  A
C656        N673   1.157       .  T
C657        N675   1.157       .  T
C658        C659   1.408       .  A
C658        C663   1.451       .  S
C659        C660   1.412       .  A
C659        C665   1.450       .  S
C660        C661   1.413       .  A
C661        C662   1.413       .  A
C661        C664   1.449       .  S
C662        C666   1.450       .  S
C663        N670   1.157       .  T
C664        N671   1.157       .  T
C665        N669   1.157       .  T
C666        N672   1.157       .  T
C667        N676   1.157       .  T
C668        N674   1.157       .  T
C677        C678   1.410       .  A
C677        C682   1.413       .  A
C677        C695   1.451       .  S
C678        C683   1.502       .  S
C678        C679   1.409       .  A
C679        C680   1.413       .  A
C679        C684   1.452       .  S
C680        C681   1.422       .  A
C680        C696   1.448       .  S
C681        C682   1.420       .  A
C682        C685   1.451       .  S
C683        C686   1.414       .  A
C683        C690   1.412       .  A
C684        N701   1.157       .  T
C685        N703   1.157       .  T
C686        C687   1.412       .  A
C686        C691   1.451       .  S
C687        C688   1.412       .  A
C687        C693   1.450       .  S
C688        C689   1.413       .  A
C689        C690   1.412       .  A
C689        C692   1.451       .  S
C690        C694   1.450       .  S
C691        N698   1.157       .  T
C692        N699   1.157       .  T
C693        N697   1.157       .  T
C694        N700   1.157       .  T
C695        N704   1.157       .  T
C696        N702   1.157       .  T
C705        C706   1.413   1_554  A
C705        C710   1.411       .  A
C705        C723   1.451       .  S
C706        C711   1.504       .  S
C706        C707   1.413       .  A
C707        C708   1.413       .  A
C707        C712   1.451       .  S
C708        C709   1.417       .  A
C708        C724   1.451       .  S
C709        C710   1.417   1_556  A
C710        C713   1.451       .  S
C711        C714   1.413       .  A
C711        C718   1.413   1_556  A
C712        N729   1.157       .  T
C713        N731   1.157       .  T
C714        C715   1.413       .  A
C714        C719   1.450       .  S
C715        C716   1.415       .  A
C715        C721   1.451       .  S
C716        C717   1.417   1_556  A
C717        C718   1.411       .  A
C717        C720   1.452       .  S
C718        C722   1.451       .  S
C719        N726   1.157       .  T
C720        N727   1.157       .  T
C721        N725   1.157       .  T
C722        N728   1.157       .  T
C723        N732   1.157       .  T
C724        N730   1.157       .  T
C733        C734   1.413   1_554  A
C733        C738   1.412       .  A
C733        C751   1.451       .  S
C734        C739   1.501       .  S
C734        C735   1.413       .  A
C735        C736   1.411       .  A
C735        C740   1.451       .  S
C736        C737   1.416       .  A
C736        C752   1.451       .  S
C737        C738   1.416   1_556  A
C738        C741   1.451       .  S
C739        C742   1.412       .  A
C739        C746   1.414   1_556  A
C740        N757   1.157       .  T
C741        N759   1.157       .  T
C742        C743   1.410       .  A
C742        C747   1.451       .  S
C743        C744   1.415       .  A
C743        C749   1.452       .  S
C744        C745   1.413   1_556  A
C745        C746   1.412       .  A
C745        C748   1.451       .  S
C746        C750   1.451       .  S
C747        N754   1.157       .  T
C748        N755   1.157       .  T
C749        N753   1.157       .  T
C750        N756   1.157       .  T
C751        N760   1.157       .  T
C752        N758   1.157       .  T
C761        C762   1.413       .  A
C761        C766   1.411       .  A
C761        C779   1.452       .  S
C762        C767   1.502       .  S
C762        C763   1.412       .  A
C763        C764   1.411       .  A
C763        C768   1.451       .  S
C764        C765   1.416       .  A
C764        C780   1.450       .  S
C765        C766   1.415       .  A
C766        C769   1.449       .  S
C767        C770   1.414       .  A
C767        C774   1.414       .  A
C768        N785   1.157       .  T
C769        N787   1.157       .  T
C770        C771   1.410       .  A
C770        C775   1.451       .  S
C771        C772   1.412       .  A
C771        C777   1.449       .  S
C772        C773   1.413       .  A
C773        C774   1.412       .  A
C773        C776   1.450       .  S
C774        C778   1.450       .  S
C775        N782   1.157       .  T
C776        N783   1.157       .  T
C777        N781   1.157       .  T
C778        N784   1.157       .  T
C779        N788   1.157       .  T
C780        N786   1.157       .  T
C789        C790   1.414       .  A
C789        C794   1.412       .  A
C789        C807   1.450       .  S
C790        C795   1.500       .  S
C790        C791   1.414       .  A
C791        C792   1.408       .  A
C791        C796   1.452       .  S
C792        C793   1.411       .  A
C792        C808   1.450       .  S
C793        C794   1.413       .  A
C794        C797   1.451       .  S
C795        C798   1.412       .  A
C795        C802   1.412       .  A
C796        N813   1.157       .  T
C797        N815   1.157       .  T
C798        C799   1.410       .  A
C798        C803   1.452       .  S
C799        C800   1.415       .  A
C799        C805   1.449       .  S
C800        C801   1.417       .  A
C801        C802   1.412       .  A
C801        C804   1.451       .  S
C802        C806   1.451       .  S
C803        N810   1.157       .  T
C804        N811   1.157       .  T
C805        N809   1.156       .  T
C806        N812   1.157       .  T
C807        N816   1.157       .  T
C808        N814   1.157       .  T
C817        C818   1.410       .  A
C817        C822   1.411   1_554  A
C817        C835   1.452   1_554  S
C818        C823   1.500       .  S
C818        C819   1.410       .  A
C819        C820   1.412       .  A
C819        C824   1.451       .  S
C820        C821   1.419       .  A
C820        C836   1.451       .  S
C821        C822   1.418   1_554  A
C822        C825   1.449       .  S
C823        C826   1.413       .  A
C823        C830   1.413   1_554  A
C824        N841   1.157       .  T
C825        N843   1.156       .  T
C826        C827   1.411       .  A
C826        C831   1.450       .  S
C827        C828   1.411       .  A
C827        C833   1.450       .  S
C828        C829   1.411   1_554  A
C829        C830   1.409       .  A
C829        C832   1.450       .  S
C830        C834   1.451       .  S
C831        N838   1.157       .  T
C832        N839   1.157       .  T
C833        N837   1.157       .  T
C834        N840   1.157       .  T
C835        N844   1.157       .  T
C836        N842   1.157       .  T
C845        C846   1.413   1_556  A
C845        C850   1.409       .  A
C845        C863   1.451       .  S
C846        C851   1.499       .  S
C846        C847   1.413       .  A
C847        C848   1.411       .  A
C847        C852   1.450       .  S
C848        C849   1.412       .  A
C848        C864   1.450       .  S
C849        C850   1.412   1_554  A
C850        C853   1.450       .  S
C851        C854   1.411   1_554  A
C851        C858   1.411       .  A
C852        N869   1.157       .  T
C853        N871   1.157       .  T
C854        C855   1.410       .  A
C854        C859   1.451       .  S
C855        C856   1.416   1_556  A
C855        C861   1.449       .  S
C856        C857   1.415       .  A
C857        C858   1.412       .  A
C857        C860   1.448       .  S
C858        C862   1.451       .  S
C859        N866   1.157       .  T
C860        N867   1.156       .  T
C861        N865   1.157       .  T
C862        N868   1.157       .  T
C863        N872   1.157       .  T
C864        N870   1.157       .  T
C873        C874   1.412       .  A
C873        C878   1.411       .  A
C873        C891   1.450       .  S
C874        C879   1.494       .  S
C874        C875   1.410   1_545  A
C875        C876   1.409       .  A
C875        C880   1.451       .  S
C876        C877   1.414   1_565  A
C876        C892   1.452       .  S
C877        C878   1.412       .  A
C878        C881   1.451       .  S
C879        C882   1.408   1_545  A
C879        C886   1.407       .  A
C880        N897   1.157       .  T
C881        N899   1.157       .  T
C882        C883   1.411       .  A
C882        C887   1.451       .  S
C883        C884   1.421       .  A
C883        C889   1.451       .  S
C884        C885   1.423   1_565  A
C885        C886   1.411       .  A
C885        C888   1.452       .  S
C886        C890   1.451       .  S
C887        N894   1.157       .  T
C888        N895   1.158       .  T
C889        N893   1.157       .  T
C890        N896   1.157       .  T
C891        N900   1.157       .  T
C892        N898   1.157       .  T
C901        C902   1.409       .  A
C901        C906   1.409       .  A
C901        C919   1.451       .  S
C902        C907   1.494   1_545  S
C902        C903   1.410   1_545  A
C903        C904   1.411       .  A
C903        C908   1.451       .  S
C904        C905   1.416       .  A
C904        C920   1.451       .  S
C905        C906   1.417   1_565  A
C906        C909   1.450       .  S
C907        C910   1.409       .  A
C907        C914   1.409   1_565  A
C908        N925   1.157       .  T
C909        N927   1.157       .  T
C910        C911   1.409       .  A
C910        C915   1.451       .  S
C911        C912   1.417       .  A
C911        C917   1.451       .  S
C912        C913   1.418   1_565  A
C913        C914   1.411       .  A
C913        C916   1.451       .  S
C914        C918   1.451       .  S
C915        N922   1.157       .  T
C916        N923   1.157       .  T
C917        N921   1.157       .  T
C918        N924   1.157       .  T
C919        N928   1.157       .  T
C920        N926   1.157       .  T
