geometry optimzed in LAMMPS
_audit_creation_date              2020-11-30 
_audit_creation_method            'lammps2cif' 
_symmetry_space_group_name_H-M    'P1' 
_symmetry_Int_Tables_number       1 
_symmetry_cell_setting            triclinic 
loop_ 
_symmetry_equiv_pos_as_xyz 
  x,y,z 
_cell_length_a                    44.724422767732605 
_cell_length_b                    44.70260571873922 
_cell_length_c                    44.686135090029715 
_cell_angle_alpha                 90.42237155760608 
_cell_angle_beta                  89.91963393313905 
_cell_angle_gamma                 89.80584683110666 
loop_ 
_atom_site_label 
_atom_site_type_symbol 
_atom_site_fract_x 
_atom_site_fract_y 
_atom_site_fract_z 
_atom_site_charge 
C1          C  0.49825303  0.81548051  0.65219285     0.04210
C2          C  0.49853137  0.84534801  0.66165855    -0.11940
C3          C  0.49801411  0.85266555  0.69203770     0.01710
C4          C  0.49780114  0.83003309  0.71343811    -0.10460
C5          C  0.49949475  0.79957145  0.70482781     0.04200
C6          C  0.49934116  0.79271417  0.67377621    -0.09890
H7          H  0.49875020  0.86310565  0.64525509     0.09800
H8          H  0.49604332  0.83676086  0.73662491     0.07330
H9          H  0.50040965  0.76985676  0.66589864     0.07170
C10         C  0.51317728  0.75982207  0.77944740     0.04210
C11         C  0.51141542  0.78212544  0.75761275    -0.11940
C12         C  0.50206796  0.77537469  0.72801910     0.01710
C13         C  0.49521647  0.74522357  0.72100992    -0.10460
C14         C  0.50023213  0.72233973  0.74182877     0.04200
C15         C  0.50953912  0.73007947  0.77078782    -0.09890
H16         H  0.51692376  0.80463165  0.76446478     0.09800
H17         H  0.48574466  0.73918805  0.69961363     0.07330
H18         H  0.51270533  0.71276645  0.78731620     0.07170
C19         C  0.77561735  0.72392233  0.45786649     0.04210
C20         C  0.75442202  0.74630737  0.46508093    -0.11940
C21         C  0.76144515  0.77703800  0.46216726     0.01710
C22         C  0.79111711  0.78467467  0.45449565    -0.10460
C23         C  0.81267702  0.76257587  0.44954416     0.04200
C24         C  0.80427800  0.73266190  0.44871128    -0.09890
H25         H  0.73288854  0.73970071  0.47379142     0.09800
H26         H  0.79835268  0.80759902  0.45292123     0.07330
H27         H  0.82108434  0.71592222  0.44337132     0.07170
C28         C  0.72632415  0.85274050  0.48128380     0.04210
C29         C  0.74745001  0.83022159  0.47655903    -0.11940
C30         C  0.73856181  0.80092414  0.46872649     0.01710
C31         C  0.70759203  0.79523126  0.46556187    -0.10460
C32         C  0.68592912  0.81707435  0.47329036     0.04200
C33         C  0.69599511  0.84545452  0.48250552    -0.09890
H34         H  0.77066500  0.83654062  0.47786063     0.09800
H35         H  0.70026189  0.77406595  0.45636208     0.07330
H36         H  0.68015636  0.86290335  0.48836577     0.07170
C37         C  0.77178259  0.54406805  0.65011685     0.04210
C38         C  0.80200363  0.54298823  0.65770445    -0.11940
C39         C  0.81125214  0.53400799  0.68628102     0.01710
C40         C  0.78918777  0.52779924  0.70785390    -0.10460
C41         C  0.75853660  0.53257328  0.70168897     0.04200
C42         C  0.75019062  0.54052118  0.67240230    -0.09890
H43         H  0.81844171  0.54794266  0.64063791     0.09800
H44         H  0.79591187  0.51910803  0.72934740     0.07330
H45         H  0.72702363  0.54387797  0.66640645     0.07170
C46         C  0.72159606  0.53172180  0.77870597     0.04210
C47         C  0.74275969  0.53541629  0.75579349    -0.11940
C48         C  0.73546887  0.52927036  0.72566868     0.01710
C49         C  0.70562857  0.52180927  0.71862566    -0.10460
C50         C  0.68372989  0.52072635  0.74101139     0.04200
C51         C  0.69228862  0.52358304  0.77093598    -0.09890
H52         H  0.76468563  0.54382924  0.76146041     0.09800
H53         H  0.69880347  0.51762880  0.69578439     0.07330
H54         H  0.67545980  0.52124406  0.78821908     0.07170
C55         C  0.78318197  0.84951807  0.96353400     0.04210
C56         C  0.76039876  0.82842035  0.96739165    -0.11940
C57         C  0.76598448  0.79724976  0.96520068     0.01710
C58         C  0.79630027  0.78809259  0.96210398    -0.10460
C59         C  0.81927759  0.80918601  0.95928740     0.04200
C60         C  0.81240946  0.83960659  0.95857704    -0.09890
H61         H  0.73860598  0.83721391  0.97264995     0.09800
H62         H  0.80294578  0.76492935  0.96278810     0.07330
H63         H  0.83024975  0.85570597  0.95573038     0.07170
C64         C  0.72299181  0.72287709  0.97126577     0.04210
C65         C  0.74599423  0.74358357  0.96610504    -0.11940
C66         C  0.74066001  0.77487248  0.96771450     0.01710
C67         C  0.71044959  0.78435967  0.97097815    -0.10460
C68         C  0.68741090  0.76378029  0.97563095     0.04200
C69         C  0.69422761  0.73348177  0.97767931    -0.09890
H70         H  0.76762738  0.73466484  0.96029522     0.09800
H71         H  0.70380671  0.80744927  0.96951712     0.07330
H72         H  0.67639543  0.71778703  0.98225891     0.07170
C73         C  0.77390209  0.02181538  0.77874816     0.04210
C74         C  0.75253974  0.02383527  0.75597138    -0.11940
C75         C  0.76093321  0.03129416  0.72642869     0.01710
C76         C  0.79155454  0.03713964  0.72079978    -0.10460
C77         C  0.81347972  0.03175204  0.74259123     0.04200
C78         C  0.80418811  0.02347905  0.77135874    -0.09890
H79         H  0.72957439  0.01982540  0.76205804     0.09800
H80         H  0.79872857  0.04609151  0.69961368     0.07330
H81         H  0.82063726  0.01965649  0.78868262     0.07170
C82         C  0.72683794  0.03402208  0.64810568     0.04210
C83         C  0.74745491  0.03170645  0.67142450    -0.11940
C84         C  0.73820943  0.03312437  0.70164644     0.01710
C85         C  0.70712112  0.03510665  0.70762065    -0.10460
C86         C  0.68601662  0.03617548  0.68433370     0.04200
C87         C  0.69628234  0.03657999  0.65465711    -0.09890
H88         H  0.77056659  0.02795170  0.66542091     0.09800
H89         H  0.69873416  0.03557128  0.73023155     0.07330
H90         H  0.68035818  0.03812327  0.63646323     0.07170
C91         C  0.00477332  0.81575046  0.77676934     0.04210
C92         C  0.00818455  0.84513778  0.76673666    -0.11940
C93         C  0.00606323  0.85183597  0.73628675     0.01710
C94         C  0.00383406  0.82867763  0.71516880    -0.10460
C95         C  0.00273188  0.79838263  0.72412691     0.04200
C96         C  0.00144301  0.79277621  0.75537740    -0.09890
H97         H  0.01102218  0.86322260  0.78275246     0.09800
H98         H  0.00182644  0.83511926  0.69207446     0.07330
H99         H  0.99717560  0.77079893  0.76394321     0.07170
C100        C  0.99789080  0.75539921  0.64878028     0.04210
C101        C  0.00271804  0.77844882  0.66998125    -0.11940
C102        C  0.00117904  0.77312329  0.70130506     0.01710
C103        C  0.99914723  0.74296190  0.71045503    -0.10460
C104        C  0.99543939  0.71989490  0.68963726     0.04200
C105        C  0.99270009  0.72643121  0.65928204    -0.09890
H106        H  0.00826328  0.80019059  0.66146899     0.09800
H107        H  0.00131574  0.73635960  0.73345829     0.07330
H108        H  0.98826618  0.70834394  0.64365664     0.07170
C109        C  0.50275672  0.26284031  0.64974255     0.04210
C110        C  0.50070353  0.28426194  0.67263495    -0.11940
C111        C  0.49239069  0.27598251  0.70196669     0.01710
C112        C  0.48592487  0.24558201  0.70749831    -0.10460
C113        C  0.49132083  0.22351556  0.68556398     0.04200
C114        C  0.49995675  0.23265541  0.65689944    -0.09890
H115        H  0.50587496  0.30717216  0.66716252     0.09800
H116        H  0.47705813  0.23883465  0.72889904     0.07330
H117        H  0.50408169  0.21610407  0.63957615     0.07170
C118        C  0.49117608  0.35117181  0.74304432     0.04210
C119        C  0.48802809  0.32941696  0.72051773    -0.11940
C120        C  0.49170376  0.29870973  0.72677581     0.01710
C121        C  0.49588483  0.29015959  0.75688515    -0.10460
C122        C  0.49682656  0.31169653  0.77974827     0.04200
C123        C  0.49574988  0.34205681  0.77259251    -0.09890
H124        H  0.48280659  0.33682919  0.69814929     0.09800
H125        H  0.49845860  0.26695999  0.76298541     0.07330
H126        H  0.49773812  0.35863813  0.79029904     0.07170
O127        O  0.49966933  0.07763908  0.67521807    -0.70700
O128        O  0.49983104  0.99311470  0.68002518    -0.70920
O129        O  0.45774782  0.03531797  0.67731886    -0.70770
O130        O  0.54198344  0.03541452  0.67753873    -0.70780
O131        O  0.54246929  0.03902882  0.72600937    -0.70740
O132        O  0.45681337  0.03824101  0.72578651    -0.70760
O133        O  0.50024079  0.99613188  0.72862923    -0.70700
O134        O  0.49884386  0.08096171  0.72350031    -0.70890
V135        V  0.49985869  0.03542611  0.67854450     1.35240
V136        V  0.49964917  0.03850542  0.72512944     1.35170
C137        C  0.49868860  0.09392705  0.69843753     0.78540
C138        C  0.49984788  0.98029755  0.70510144     0.78600
C139        C  0.44274856  0.03732705  0.70118129     0.78470
C140        C  0.55672992  0.03697429  0.70153902     0.78430
C141        C  0.99273692  0.22178485  0.73930662     0.04210
C142        C  0.99360269  0.24433178  0.71774535    -0.11940
C143        C  0.00183070  0.27381173  0.72561014     0.01710
C144        C  0.00741990  0.28051247  0.75609980    -0.10460
C145        C  0.00371220  0.25864443  0.77817722     0.04200
C146        C  0.99690252  0.22941801  0.76936417    -0.09890
H147        H  0.98803634  0.23850446  0.69490872     0.09800
H148        H  0.01475226  0.30255064  0.76293360     0.07330
H149        H  0.99515665  0.21220603  0.78620874     0.07170
C150        C  0.00298394  0.34996113  0.68773578     0.04210
C151        C  0.99994076  0.32774645  0.70945458    -0.11940
C152        C  0.00457090  0.29734144  0.70213528     0.01710
C153        C  0.01094255  0.28964764  0.67202342    -0.10460
C154        C  0.01167816  0.31160249  0.64976438     0.04200
C155        C  0.00891472  0.34166325  0.65805109    -0.09890
H156        H  0.99337577  0.33442139  0.73183722     0.09800
H157        H  0.01483608  0.26665543  0.66539478     0.07330
H158        H  0.01015073  0.35874583  0.64100133     0.07170
C159        C  0.22455026  0.04047135  0.77811980     0.04210
C160        C  0.24605700  0.04055667  0.75530465    -0.11940
C161        C  0.23771411  0.04388400  0.72490010     0.01710
C162        C  0.20678357  0.04655335  0.71850322    -0.10460
C163        C  0.18533454  0.04478297  0.74123519     0.04200
C164        C  0.19428058  0.04220928  0.77096717    -0.09890
H165        H  0.26900741  0.03737647  0.76195019     0.09800
H166        H  0.19852997  0.04959080  0.69608913     0.07330
H167        H  0.17760443  0.04120058  0.78856815     0.07170
C168        C  0.27400057  0.03783359  0.64718648     0.04210
C169        C  0.30419761  0.03619732  0.65472925    -0.11940
C170        C  0.31355776  0.04054612  0.68435255     0.01710
C171        C  0.29181956  0.04504664  0.70668274    -0.10460
C172        C  0.26084279  0.04305937  0.70021306     0.04200
C173        C  0.25245297  0.03994591  0.66978389    -0.09890
H174        H  0.32055927  0.03272956  0.63711595     0.09800
H175        H  0.29963859  0.05044041  0.72887282     0.07330
H176        H  0.22942856  0.03918568  0.66279767     0.07170
O177        O  0.95893955  0.03318899  0.75166872    -0.70700
O178        O  0.04288681  0.03827925  0.75055987    -0.70920
O179        O  0.99782787  0.07840901  0.75170899    -0.70770
O180        O  0.00309374  0.99323875  0.74906287    -0.70780
O181        O  0.00222087  0.99458665  0.70045538    -0.70740
O182        O  0.99738944  0.07900778  0.70315175    -0.70760
O183        O  0.04276508  0.03915011  0.70191194    -0.70700
O184        O  0.95712727  0.03476246  0.70335428    -0.70890
V185        V  0.00077513  0.03579731  0.74976696     1.35240
V186        V  0.99997578  0.03682490  0.70311572     1.35170
C187        C  0.94339677  0.03356618  0.72822817     0.78540
C188        C  0.05720917  0.03952782  0.72634282     0.78600
C189        C  0.99620343  0.09316338  0.72762437     0.78470
C190        C  0.00285632  0.97950376  0.72415432     0.78430
C191        C  0.21966059  0.52897754  0.65012871     0.04210
C192        C  0.24222285  0.52655748  0.67180508    -0.11940
C193        C  0.23581860  0.53024418  0.70259537     0.01710
C194        C  0.20567451  0.53446278  0.71128738    -0.10460
C195        C  0.18276846  0.53467189  0.68997006     0.04200
C196        C  0.18996646  0.53300505  0.65949969    -0.09890
H197        H  0.26470625  0.52161660  0.66430141     0.09800
H198        H  0.19951492  0.53734064  0.73452241     0.07330
H199        H  0.17222289  0.53425350  0.64305169     0.07170
C200        C  0.27681599  0.52446607  0.77744762     0.04210
C201        C  0.25444198  0.52240325  0.75555442    -0.11940
C202        C  0.26041807  0.52973106  0.72540595     0.01710
C203        C  0.29007039  0.53729084  0.71746309    -0.10460
C204        C  0.31308300  0.53666345  0.73874408     0.04200
C205        C  0.30605426  0.53087028  0.76863348    -0.09890
H206        H  0.23239900  0.51546883  0.76251449     0.09800
H207        H  0.29559632  0.54402309  0.69494578     0.07330
H208        H  0.32357730  0.53175332  0.78533997     0.07170
O209        O  0.95435586  0.53374146  0.72575474    -0.70700
O210        O  0.03948066  0.53680231  0.73045780    -0.70920
O211        O  0.99520316  0.57786133  0.72882047    -0.70770
O212        O  0.99832024  0.49274722  0.72748240    -0.70780
O213        O  0.99772574  0.49344025  0.67892512    -0.70740
O214        O  0.00126526  0.57805296  0.68055748    -0.70760
O215        O  0.04176253  0.53380950  0.68192434    -0.70700
O216        O  0.95727768  0.53762646  0.67763235    -0.70890
V217        V  0.99691828  0.53532713  0.72727704     1.35240
V218        V  0.99946637  0.53575801  0.68071423     1.35170
C219        C  0.94116616  0.53534373  0.70075397     0.78540
C220        C  0.05504195  0.53510953  0.70682227     0.78600
C221        C  0.99830667  0.59238473  0.70484509     0.78470
C222        C  0.99767771  0.47857708  0.70286957     0.78430
O223        O  0.49710194  0.49363901  0.70230875    -0.70700
O224        O  0.50015572  0.57892571  0.70359507    -0.70920
O225        O  0.54141283  0.53432529  0.70303687    -0.70770
O226        O  0.45637590  0.53807253  0.70249408    -0.70780
O227        O  0.45616564  0.54054248  0.75101207    -0.70740
O228        O  0.54064132  0.53097685  0.75151977    -0.70760
O229        O  0.50283334  0.57782216  0.75190292    -0.70700
O230        O  0.49402407  0.49406186  0.75081499    -0.70890
V231        V  0.49885503  0.53626000  0.70371301     1.35240
V232        V  0.49847836  0.53591500  0.75034194     1.35170
C233        C  0.49424331  0.47945329  0.72656512     0.78540
C234        C  0.50149184  0.59301236  0.72825721     0.78600
C235        C  0.55539842  0.53098384  0.72737683     0.78470
C236        C  0.44174987  0.54031093  0.72666086     0.78430
C237        C  0.51099306  0.72142594  0.18561596     0.04210
C238        C  0.51283974  0.74267308  0.20891499    -0.11940
C239        C  0.50781354  0.77358312  0.20365016     0.01710
C240        C  0.50260460  0.78256443  0.17380772    -0.10460
C241        C  0.50294259  0.76170960  0.15017561     0.04200
C242        C  0.50682605  0.73130983  0.15634737    -0.09890
H243        H  0.51767066  0.73444605  0.23103059     0.09800
H244        H  0.49743305  0.80555380  0.16854838     0.07330
H245        H  0.50577141  0.71509572  0.13821765     0.07170
C246        C  0.49777939  0.80711098  0.28212729     0.04210
C247        C  0.50070970  0.78644993  0.25870161    -0.11940
C248        C  0.50596678  0.79598269  0.22909895     0.01710
C249        C  0.50894590  0.82720175  0.22416412    -0.10460
C250        C  0.50330933  0.84842612  0.24714821     0.04200
C251        C  0.49706079  0.83776270  0.27595658    -0.09890
H252        H  0.49921969  0.76306592  0.26427745     0.09800
H253        H  0.51577879  0.83530471  0.20250700     0.07330
H254        H  0.49278199  0.85332545  0.29416171     0.07170
O255        O  0.51011171  0.74927296  0.92436868    -0.70700
O256        O  0.49845479  0.75236384  0.00873996    -0.70920
O257        O  0.46251440  0.74806037  0.96105222    -0.70770
O258        O  0.54614070  0.75320315  0.97226480    -0.70780
O259        O  0.54395575  0.80138275  0.96629431    -0.70740
O260        O  0.45875195  0.79625137  0.96363490    -0.70760
O261        O  0.49977382  0.80090471  0.00736135    -0.70700
O262        O  0.50309310  0.79727899  0.92235884    -0.70890
V263        V  0.50424893  0.75164434  0.96653975     1.35240
V264        V  0.50142457  0.79810631  0.96488312     1.35170
C265        C  0.50803702  0.77277804  0.90886849     0.78540
C266        C  0.49789431  0.77721184  0.02250440     0.78600
C267        C  0.44599457  0.77101282  0.96188310     0.78470
C268        C  0.55940130  0.77800964  0.97056568     0.78430
C269        C  0.22538866  0.84791651  0.96640891     0.04210
C270        C  0.24729496  0.82549252  0.96225321    -0.11940
C271        C  0.24022710  0.79483298  0.96600253     0.01710
C272        C  0.21024442  0.78729154  0.97235414    -0.10460
C273        C  0.18822557  0.80936959  0.97446175     0.04200
C274        C  0.19611976  0.83940710  0.97342413    -0.09890
H275        H  0.26945193  0.83208420  0.95525324     0.09800
H276        H  0.20324423  0.76436940  0.97492645     0.07330
H277        H  0.17879744  0.85624179  0.97612827     0.07170
C278        C  0.31609420  0.75502170  0.95897360     0.04210
C279        C  0.30673836  0.72632376  0.95014643    -0.11940
C280        C  0.27651740  0.71878283  0.94984039     0.01710
C281        C  0.25503589  0.74128094  0.95365048    -0.10460
C282        C  0.26341374  0.77079288  0.96148129     0.04200
C283        C  0.29416015  0.77682954  0.96558887    -0.09890
H284        H  0.32311441  0.70907991  0.94516373     0.09800
H285        H  0.23192512  0.73501611  0.95082475     0.07330
H286        H  0.30115036  0.79830466  0.97432553     0.07170
C287        C  0.00541031  0.81309221  0.14809979     0.04210
C288        C  0.00578071  0.79143173  0.17055785    -0.11940
C289        C  0.99751562  0.79883589  0.20009992     0.01710
C290        C  0.99078275  0.82889919  0.20721091    -0.10460
C291        C  0.99372856  0.85137695  0.18569869     0.04200
C292        C  0.00027635  0.84304563  0.15610772    -0.09890
H293        H  0.01212555  0.76876007  0.16469254     0.09800
H294        H  0.98331805  0.83502398  0.22947315     0.07330
H295        H  0.00120963  0.86008189  0.13904532     0.07170
C296        C  0.99912887  0.76071873  0.27577218     0.04210
C297        C  0.99189338  0.73131022  0.26749858    -0.11940
C298        C  0.98797551  0.72316676  0.23751866     0.01710
C299        C  0.98824300  0.74557420  0.21574548    -0.10460
C300        C  0.99576769  0.77529220  0.22339227     0.04200
C301        C  0.00219396  0.78229229  0.25346267    -0.09890
H302        H  0.99045837  0.71427128  0.28454037     0.09800
H303        H  0.98316561  0.73946382  0.19285069     0.07330
H304        H  0.00984094  0.80441848  0.25965265     0.07170
O305        O  0.96161589  0.82017603  0.96204572    -0.70700
O306        O  0.04658725  0.81995845  0.96449131    -0.70920
O307        O  0.00530169  0.82056997  0.92106480    -0.70770
O308        O  0.00312564  0.82027695  0.00516152    -0.70780
O309        O  0.00433984  0.77172596  0.00521931    -0.70740
O310        O  0.00424162  0.77204134  0.91961533    -0.70760
O311        O  0.04660733  0.77131262  0.96295120    -0.70700
O312        O  0.96175723  0.77152753  0.96218006    -0.70890
V313        V  0.00413547  0.81924353  0.96311094     1.35240
V314        V  0.00420423  0.77253296  0.96247314     1.35170
C315        C  0.94730266  0.79582200  0.96180787     0.78540
C316        C  0.06091827  0.79553406  0.96467263     0.78600
C317        C  0.00433838  0.79673711  0.90583713     0.78470
C318        C  0.00451134  0.79625574  0.01965047     0.78430
C319        C  0.22013955  0.72091432  0.47409087     0.04210
C320        C  0.24211434  0.74305856  0.47580144    -0.11940
C321        C  0.23638819  0.77265894  0.46633291     0.01710
C322        C  0.20679073  0.77999532  0.45756789    -0.10460
C323        C  0.18371303  0.75868893  0.45932966     0.04200
C324        C  0.19099110  0.72922738  0.46697311    -0.09890
H325        H  0.26375295  0.73654949  0.48428708     0.09800
H326        H  0.20122860  0.80202021  0.44952422     0.07330
H327        H  0.17369157  0.71235813  0.46726893     0.07170
C328        C  0.31460264  0.80627358  0.47117300     0.04210
C329        C  0.29146530  0.78584342  0.46679852    -0.11940
C330        C  0.26126591  0.79533822  0.46656683     0.01710
C331        C  0.25551743  0.82652106  0.46676862    -0.10460
C332        C  0.27889084  0.84742606  0.47020965     0.04200
C333        C  0.30803485  0.83661828  0.47462899    -0.09890
H334        H  0.29753532  0.76269996  0.46306225     0.09800
H335        H  0.23304331  0.83484903  0.46417221     0.07330
H336        H  0.32620768  0.85205239  0.47882007     0.07170
O337        O  0.95558936  0.79712083  0.46159404    -0.70700
O338        O  0.04063023  0.79428461  0.46241951    -0.70920
O339        O  0.99895437  0.79625820  0.41967514    -0.70770
O340        O  0.99788539  0.79504419  0.50499568    -0.70780
O341        O  0.99478305  0.74666380  0.50334666    -0.70740
O342        O  0.99867922  0.74779880  0.41893454    -0.70760
O343        O  0.03907559  0.74587122  0.46281540    -0.70700
O344        O  0.95440272  0.74854651  0.45892729    -0.70890
V345        V  0.99812489  0.79480201  0.46224524     1.35240
V346        V  0.99671671  0.74820245  0.46113506     1.35170
C347        C  0.94066103  0.77324985  0.45920083     0.78540
C348        C  0.05445484  0.76954429  0.46225345     0.78600
C349        C  0.99978893  0.77208547  0.40475506     0.78470
C350        C  0.99673674  0.77040281  0.51873802     0.78430
O351        O  0.45518757  0.81536505  0.46161168    -0.70700
O352        O  0.53917520  0.82116343  0.46776160    -0.70920
O353        O  0.50059972  0.81524098  0.42234061    -0.70770
O354        O  0.49410471  0.82096841  0.50685802    -0.70780
O355        O  0.50197845  0.77315599  0.51014892    -0.70740
O356        O  0.49930074  0.76674674  0.42513804    -0.70760
O357        O  0.54331841  0.77299650  0.46608343    -0.70700
O358        O  0.45802352  0.76748657  0.46937407    -0.70890
V359        V  0.49731322  0.81724562  0.46466427     1.35240
V360        V  0.50058413  0.77089584  0.46762497     1.35170
C361        C  0.44218886  0.79068422  0.46545388     0.78540
C362        C  0.55590564  0.79837640  0.46702867     0.78600
C363        C  0.50041754  0.79003833  0.40930055     0.78470
C364        C  0.49776345  0.79813005  0.52299411     0.78430
C365        C  0.49357446  0.21922264  0.23688303     0.04210
C366        C  0.49539931  0.24229980  0.21605616    -0.11940
C367        C  0.50137814  0.27200432  0.22526453     0.01710
C368        C  0.50565450  0.27750606  0.25620133    -0.10460
C369        C  0.50104001  0.25490669  0.27751960     0.04200
C370        C  0.49474747  0.22581521  0.26743228    -0.09890
H371        H  0.49239960  0.23638787  0.19279826     0.09800
H372        H  0.51266007  0.29927341  0.26408094     0.07330
H373        H  0.49177218  0.20788183  0.28333557     0.07170
C374        C  0.49855155  0.35020114  0.19055660     0.04210
C375        C  0.49856137  0.32716655  0.21171607    -0.11940
C376        C  0.50273516  0.29695963  0.20283574     0.01710
C377        C  0.50696495  0.29081150  0.17199932    -0.10460
C378        C  0.50489437  0.31352118  0.15063644     0.04200
C379        C  0.50091781  0.34313712  0.16012975    -0.09890
H380        H  0.49461090  0.33322349  0.23483449     0.09800
H381        H  0.51184790  0.26848199  0.16399536     0.07330
H382        H  0.49974183  0.36085882  0.14372835     0.07170
O383        O  0.49747605  0.99570306  0.25238932    -0.70700
O384        O  0.49862374  0.08049346  0.24429935    -0.70920
O385        O  0.45573256  0.03916196  0.24903753    -0.70770
O386        O  0.54005103  0.03754543  0.24872894    -0.70780
O387        O  0.54045732  0.03552568  0.20019065    -0.70740
O388        O  0.45497774  0.03134387  0.20100564    -0.70760
O389        O  0.49545985  0.07554568  0.19597458    -0.70700
O390        O  0.50023266  0.99092412  0.20418625    -0.70890
V391        V  0.49791562  0.03805655  0.24765055     1.35240
V392        V  0.49774598  0.03333275  0.20120780     1.35170
C393        C  0.49969183  0.97872724  0.22962474     0.78540
C394        C  0.49690648  0.09239363  0.21872632     0.78600
C395        C  0.44088489  0.03577427  0.22530698     0.78470
C396        C  0.55473867  0.03741896  0.22464033     0.78430
O397        O  0.50487446  0.32212536  0.00681402    -0.70700
O398        O  0.49572090  0.32092094  0.92241434    -0.70920
O399        O  0.45827199  0.31920122  0.96923841    -0.70770
O400        O  0.54212909  0.32368960  0.95989385    -0.70780
O401        O  0.54576033  0.27574125  0.96488025    -0.70740
O402        O  0.46047721  0.27082503  0.96454155    -0.70760
O403        O  0.50350822  0.27289517  0.92199765    -0.70700
O404        O  0.50297517  0.27358893  0.00735693    -0.70890
V405        V  0.50028396  0.32055055  0.96458203     1.35240
V406        V  0.50309501  0.27405900  0.96465574     1.34930
C407        C  0.50479856  0.29811363  0.02158790     0.78540
C408        C  0.49909520  0.29687354  0.90776892     0.78600
C409        C  0.44494136  0.29436730  0.96783566     0.78470
C410        C  0.55858689  0.30078738  0.96199600     0.78430
C411        C  0.22492371  0.35075148  0.46768782     0.04210
C412        C  0.24619518  0.32790334  0.46486676    -0.11940
C413        C  0.23765015  0.29738421  0.46466104     0.01710
C414        C  0.20656638  0.29113689  0.46413856    -0.10460
C415        C  0.18502530  0.31408601  0.46646134     0.04200
C416        C  0.19469399  0.34366257  0.46993609    -0.09890
H417        H  0.26911254  0.33471861  0.46207019     0.09800
H418        H  0.19843427  0.26864989  0.46166324     0.07330
H419        H  0.17848750  0.36158168  0.47255066     0.07170
C420        C  0.27468762  0.21926838  0.46187492     0.04210
C421        C  0.25310790  0.24213279  0.46033276    -0.11940
C422        C  0.26088689  0.27260393  0.46484042     0.01710
C423        C  0.29141327  0.27905444  0.47026291    -0.10460
C424        C  0.31325016  0.25652917  0.46998662     0.04200
C425        C  0.30468977  0.22672447  0.46648268    -0.09890
H426        H  0.23053926  0.23536406  0.45546486     0.09800
H427        H  0.29910266  0.30144868  0.47475408     0.07330
H428        H  0.32155728  0.20925432  0.46686177     0.07170
O429        O  0.95610255  0.27544307  0.46375767    -0.70700
O430        O  0.04159680  0.27393065  0.46413338    -0.70920
O431        O  0.99902086  0.27435836  0.50673182    -0.70770
O432        O  0.99925181  0.27430854  0.42158445    -0.70780
O433        O  0.99673291  0.32288780  0.42203721    -0.70740
O434        O  0.00270635  0.32280421  0.50687596    -0.70760
O435        O  0.04145952  0.32239899  0.46177219    -0.70700
O436        O  0.95744861  0.32375891  0.46736094    -0.70890
V437        V  0.99889837  0.27535905  0.46413515     1.35240
V438        V  0.99948541  0.32198638  0.46452227     1.35170
C439        C  0.94216627  0.30017769  0.46521325     0.78540
C440        C  0.05602072  0.29820679  0.46234971     0.78600
C441        C  0.00227634  0.29853280  0.52122365     0.78470
C442        C  0.99794717  0.29859676  0.40737884     0.78430
O443        O  0.28228118  0.07685972  0.45781596    -0.70700
O444        O  0.28526246  0.99301142  0.46573563    -0.70920
O445        O  0.28339734  0.03056361  0.41938179    -0.70770
O446        O  0.28356374  0.03909068  0.50418196    -0.70780
O447        O  0.23540137  0.03281907  0.50467201    -0.70740
O448        O  0.23487783  0.03356242  0.41958173    -0.70760
O449        O  0.23711658  0.99045782  0.46142806    -0.70700
O450        O  0.23395451  0.07605866  0.46252325    -0.70890
V451        V  0.28269074  0.03485286  0.46180493     1.35240
V452        V  0.23615434  0.03326511  0.46209801     1.35170
C453        C  0.25782952  0.09094512  0.45926964     0.78540
C454        C  0.26208869  0.97713653  0.46368217     0.78600
C455        C  0.25903928  0.03148495  0.40503139     0.78470
C456        C  0.25953313  0.03646512  0.51889818     0.78430
C457        C  0.22426691  0.22025824  0.97008834     0.04210
C458        C  0.24595656  0.24263890  0.97445738    -0.11940
C459        C  0.23939529  0.27323633  0.96933702     0.01710
C460        C  0.20936346  0.28090940  0.96296075    -0.10460
C461        C  0.18716143  0.25901772  0.96119263     0.04200
C462        C  0.19494893  0.22885887  0.96301622    -0.09890
H463        H  0.26778040  0.23571092  0.98202150     0.09800
H464        H  0.20245791  0.30371769  0.95930510     0.07330
H465        H  0.17776333  0.21207997  0.95996436     0.07170
C466        C  0.27867025  0.34955331  0.97071764     0.04210
C467        C  0.25636581  0.32768026  0.97197762    -0.11940
C468        C  0.26356101  0.29679903  0.97028229     0.01710
C469        C  0.29424484  0.28883354  0.96872998    -0.10460
C470        C  0.31671178  0.31071622  0.96901186     0.04200
C471        C  0.30865507  0.34099773  0.96921591    -0.09890
H472        H  0.23363417  0.33542964  0.97446144     0.09800
H473        H  0.30128169  0.26576720  0.96725003     0.07330
H474        H  0.32585675  0.35802233  0.96867525     0.07170
C475        C  0.22168513  0.03172072  0.14739746     0.04210
C476        C  0.19170299  0.03594584  0.15507523    -0.11940
C477        C  0.18331144  0.04158060  0.18470415     0.01710
C478        C  0.20552830  0.04375722  0.20683203    -0.10460
C479        C  0.23597273  0.03802581  0.20001180     0.04200
C480        C  0.24350531  0.03158354  0.16988770    -0.09890
H481        H  0.17475729  0.03499101  0.13776848     0.09800
H482        H  0.19857605  0.04986447  0.22921738     0.07330
H483        H  0.26618941  0.02637676  0.16333326     0.07170
C484        C  0.31225890  0.04089725  0.23916471     0.04210
C485        C  0.30383605  0.03808728  0.26906509    -0.11940
C486        C  0.27379539  0.03543766  0.27691404     0.01710
C487        C  0.25184826  0.03491605  0.25454660    -0.10460
C488        C  0.25957888  0.03848425  0.22404575     0.04200
C489        C  0.29025157  0.04191785  0.21685056    -0.09890
H490        H  0.32082678  0.03760577  0.28635469     0.09800
H491        H  0.22900628  0.03113660  0.26138341     0.07330
H492        H  0.29756466  0.04548103  0.19411895     0.07170
C493        C  0.99781627  0.22286094  0.18734272     0.04210
C494        C  0.99678084  0.24521908  0.20948174    -0.11940
C495        C  0.00399508  0.27520817  0.20275294     0.01710
C496        C  0.01168844  0.28210740  0.17288884    -0.10460
C497        C  0.00975443  0.26046997  0.15002227     0.04200
C498        C  0.00318275  0.23088751  0.15764753    -0.09890
H499        H  0.99024449  0.23872015  0.23177371     0.09800
H500        H  0.01903907  0.30429879  0.16698870     0.07330
H501        H  0.00244889  0.21381855  0.14032422     0.07170
C502        C  0.99891964  0.35212461  0.24098355     0.04210
C503        C  0.00058961  0.34404734  0.27116655    -0.11940
C504        C  0.00298783  0.31402983  0.27937082     0.01710
C505        C  0.00535100  0.29185893  0.25719493    -0.10460
C506        C  0.00316285  0.29916098  0.22653677     0.04200
C507        C  0.99933852  0.32961967  0.21890463    -0.09890
H508        H  0.99963660  0.36118216  0.28844275     0.09800
H509        H  0.00863489  0.26905596  0.26434846     0.07330
H510        H  0.99615969  0.33625495  0.19592113     0.07170
O511        O  0.95406117  0.03517482  0.18115476    -0.70700
O512        O  0.03887255  0.03922000  0.17694702    -0.70920
O513        O  0.99822331  0.99497348  0.17868547    -0.70770
O514        O  0.99437697  0.07921850  0.17866760    -0.70780
O515        O  0.99896227  0.08022425  0.22702083    -0.70740
O516        O  0.99773944  0.99466605  0.22718529    -0.70760
O517        O  0.04117341  0.03706348  0.22541187    -0.70700
O518        O  0.95627953  0.03807248  0.22970304    -0.70890
V519        V  0.99649727  0.03711209  0.17983961     1.35240
V520        V  0.99863187  0.03746659  0.22645755     1.35170
C521        C  0.94081495  0.03631681  0.20617107     0.78540
C522        C  0.05450857  0.03899545  0.20053468     0.78600
C523        C  0.99688716  0.98027195  0.20263329     0.78470
C524        C  0.99603849  0.09421618  0.20260239     0.78430
O525        O  0.26527408  0.03632632  0.92076460    -0.70700
O526        O  0.26294700  0.03138572  0.00570850    -0.70920
O527        O  0.26315676  0.99121877  0.96068247    -0.70770
O528        O  0.26462404  0.07648830  0.96657634    -0.70780
O529        O  0.21619956  0.07711783  0.96400564    -0.70740
O530        O  0.21470235  0.99260752  0.96094654    -0.70760
O531        O  0.21438158  0.03338804  0.00449617    -0.70700
O532        O  0.21668685  0.03577752  0.91966419    -0.70890
V533        V  0.26311544  0.03388587  0.96330446     1.35240
V534        V  0.21648458  0.03478936  0.96218448     1.35170
C535        C  0.24132088  0.03629702  0.90577474     0.78540
C536        C  0.23824480  0.03154198  0.01945455     0.78600
C537        C  0.23848636  0.97733971  0.96058577     0.78470
C538        C  0.24042292  0.09128805  0.96710559     0.78430
O539        O  0.96169893  0.24709178  0.96777218    -0.70700
O540        O  0.04632518  0.25119148  0.96201294    -0.70920
O541        O  0.00708779  0.25050755  0.00728144    -0.70770
O542        O  0.00129478  0.24768606  0.92299633    -0.70780
O543        O  0.99963949  0.29611739  0.92146196    -0.70740
O544        O  0.00414674  0.29891809  0.00669972    -0.70760
O545        O  0.04401193  0.29977383  0.96177586    -0.70700
O546        O  0.95886543  0.29558452  0.96637629    -0.70890
V547        V  0.00396890  0.25012035  0.96507909     1.35240
V548        V  0.00155723  0.29671194  0.96412003     1.35170
C549        C  0.94579623  0.27052186  0.96733245     0.78540
C550        C  0.05954626  0.27610472  0.96094982     0.78600
C551        C  0.00750010  0.27506157  0.02145511     0.78470
C552        C  0.00057384  0.27126409  0.90766705     0.78430
C553        C  0.21883012  0.53165873  0.27760419     0.04210
C554        C  0.24162816  0.53183158  0.25569207    -0.11940
C555        C  0.23475180  0.52963624  0.22475094     0.01710
C556        C  0.20455992  0.52522298  0.21658587    -0.10460
C557        C  0.18162660  0.52656004  0.23791040     0.04200
C558        C  0.18893473  0.53030402  0.26811147    -0.09890
H559        H  0.26451714  0.53398742  0.26298455     0.09800
H560        H  0.19837964  0.52106173  0.19356415     0.07330
H561        H  0.17105484  0.53196983  0.28445098     0.07170
C562        C  0.27182999  0.54434773  0.14878816     0.04210
C563        C  0.25042000  0.54222914  0.17165492    -0.11940
C564        C  0.25838758  0.53300810  0.20088429     0.01710
C565        C  0.28900188  0.52758880  0.20687167    -0.10460
C566        C  0.31105107  0.53283027  0.18497898     0.04200
C567        C  0.30199290  0.54092911  0.15612839    -0.09890
H568        H  0.22755350  0.54768460  0.16612129     0.09800
H569        H  0.29599746  0.51925025  0.22838838     0.07330
H570        H  0.31869283  0.54406323  0.13888890     0.07170
O571        O  0.95487635  0.53655798  0.19532760    -0.70700
O572        O  0.03977377  0.53708213  0.19737094    -0.70920
O573        O  0.99795052  0.49410036  0.19757694    -0.70770
O574        O  0.99635482  0.57989620  0.19646210    -0.70780
O575        O  0.99714786  0.58004561  0.24503106    -0.70740
O576        O  0.99486299  0.49585659  0.24606632    -0.70760
O577        O  0.03866752  0.53601883  0.24593112    -0.70700
O578        O  0.95363174  0.53938130  0.24391593    -0.70890
V579        V  0.99729990  0.53699150  0.19756044     1.35240
V580        V  0.99617235  0.53789007  0.24424044     1.35170
C581        C  0.93986443  0.53821610  0.21920027     0.78540
C582        C  0.05367629  0.53524992  0.22186533     0.78600
C583        C  0.99622300  0.48050400  0.22236083     0.78470
C584        C  0.99557800  0.59447108  0.22095258     0.78430
O585        O  0.28663535  0.52888570  0.92201027    -0.70700
O586        O  0.28346024  0.54059996  0.00614950    -0.70920
O587        O  0.28541652  0.49252633  0.96949791    -0.70770
O588        O  0.28480299  0.57662441  0.95832907    -0.70780
O589        O  0.23619293  0.57662912  0.95903989    -0.70740
O590        O  0.23697789  0.49168583  0.96555980    -0.70760
O591        O  0.23501606  0.53800717  0.00488405    -0.70700
O592        O  0.23817488  0.53048187  0.92007199    -0.70890
V593        V  0.28412063  0.53462039  0.96403260     1.35240
V594        V  0.23749435  0.53419079  0.96246787     1.35170
C595        C  0.26297521  0.52817885  0.90658526     0.78540
C596        C  0.25874463  0.54123798  0.01994152     0.78600
C597        C  0.26141972  0.47771532  0.96851178     0.78470
C598        C  0.26044913  0.59093192  0.95697117     0.78430
O599        O  0.26086932  0.53367176  0.50681962    -0.70700
O600        O  0.25909723  0.53829781  0.42111267    -0.70920
O601        O  0.25908969  0.57833184  0.46709001    -0.70770
O602        O  0.26194124  0.49366139  0.46168097    -0.70780
O603        O  0.21337216  0.49218675  0.46075733    -0.70740
O604        O  0.21070959  0.57696993  0.46969573    -0.70760
O605        O  0.21065790  0.53881939  0.42316645    -0.70700
O606        O  0.21243377  0.53063731  0.50690436    -0.70890
V607        V  0.25937295  0.53603229  0.46407791     1.35240
V608        V  0.21278231  0.53469876  0.46501991     1.35170
C609        C  0.23662908  0.53092023  0.52130656     0.78540
C610        C  0.23415755  0.53886896  0.40756218     0.78600
C611        C  0.23458453  0.59210423  0.47031062     0.78470
C612        C  0.23821482  0.47849195  0.46074695     0.78430
O613        O  0.45570835  0.24874536  0.46876070    -0.70700
O614        O  0.53961991  0.24621808  0.46049982    -0.70920
O615        O  0.50192256  0.24881142  0.50702659    -0.70770
O616        O  0.49438311  0.24668558  0.42227625    -0.70780
O617        O  0.49918019  0.29492869  0.42101580    -0.70740
O618        O  0.49945533  0.29732594  0.50613155    -0.70760
O619        O  0.54167580  0.29451688  0.46313667    -0.70700
O620        O  0.45619269  0.29707949  0.46399234    -0.70890
V621        V  0.49779303  0.24857496  0.46462383     1.35240
V622        V  0.49897493  0.29512845  0.46359141     1.35170
C623        C  0.44150511  0.27313533  0.46746741     0.78540
C624        C  0.55522493  0.26963700  0.46091213     0.78600
C625        C  0.50185252  0.27351211  0.52105464     0.78470
C626        C  0.49755705  0.27027569  0.40708952     0.78430
O627        O  0.45665390  0.53756794  0.17591263    -0.70700
O628        O  0.54067395  0.52888538  0.17925011    -0.70920
O629        O  0.49406353  0.49105647  0.18047497    -0.70770
O630        O  0.50325863  0.57559674  0.17517377    -0.70780
O631        O  0.49694164  0.57931223  0.22321880    -0.70740
O632        O  0.49718316  0.49426315  0.22891099    -0.70760
O633        O  0.53961230  0.53706543  0.22724392    -0.70700
O634        O  0.45424439  0.53620273  0.22426325    -0.70890
V635        V  0.49861689  0.53337966  0.17861643     1.35240
V636        V  0.49697793  0.53672264  0.22507806     1.35170
C637        C  0.44081914  0.53650737  0.19928612     0.78540
C638        C  0.55457956  0.53234581  0.20357981     0.78600
C639        C  0.49478720  0.47821124  0.20562648     0.78470
C640        C  0.50140711  0.59196419  0.19836390     0.78430
C641        C  0.72078734  0.53351361  0.15007960     0.04210
C642        C  0.69083982  0.53267138  0.15879266    -0.11940
C643        C  0.68293372  0.53281976  0.18902365     0.01710
C644        C  0.70532597  0.53401550  0.21097803    -0.10460
C645        C  0.73605650  0.53382650  0.20304980     0.04200
C646        C  0.74314831  0.53347017  0.17204555    -0.09890
H647        H  0.67347841  0.53211065  0.14187876     0.09800
H648        H  0.69808912  0.53508775  0.23397764     0.07330
H649        H  0.76585061  0.53317057  0.16408049     0.07170
C650        C  0.77660483  0.53069992  0.27930193     0.04210
C651        C  0.80624556  0.53501092  0.27038968    -0.11940
C652        C  0.81335439  0.53819629  0.24023627     0.01710
C653        C  0.79068624  0.53881671  0.21876878    -0.10460
C654        C  0.76039719  0.53411971  0.22665981     0.04200
C655        C  0.75399915  0.52935530  0.25740638    -0.09890
H656        H  0.82395009  0.53554586  0.28693144     0.09800
H657        H  0.79764886  0.54276342  0.19608358     0.07330
H658        H  0.73168966  0.52445926  0.26503521     0.07170
O659        O  0.71071689  0.57671564  0.96581186    -0.70700
O660        O  0.71569497  0.49210704  0.96440236    -0.70920
O661        O  0.71351087  0.53434091  0.00726994    -0.70770
O662        O  0.71290265  0.53489281  0.92252742    -0.70780
O663        O  0.76107058  0.53976663  0.92191284    -0.70740
O664        O  0.76210473  0.53481261  0.00709461    -0.70760
O665        O  0.76415043  0.49462473  0.96164227    -0.70700
O666        O  0.75901091  0.57958136  0.96725031    -0.70890
V667        V  0.71418314  0.53448962  0.96493535     1.35240
V668        V  0.76071188  0.53708190  0.96447615     1.35170
C669        C  0.73389336  0.59273478  0.96728869     0.78540
C670        C  0.74068560  0.47894698  0.96271285     0.78600
C671        C  0.73780080  0.53472310  0.02163303     0.78470
C672        C  0.73669092  0.53830185  0.90762485     0.78430
C673        C  0.77518809  0.21861966  0.96449706     0.04210
C674        C  0.75458089  0.24228614  0.96508482    -0.11940
C675        C  0.76414138  0.27242046  0.96696489     0.01710
C676        C  0.79548386  0.27766579  0.96701526    -0.10460
C677        C  0.81633885  0.25402683  0.96611019     0.04200
C678        C  0.80585192  0.22458550  0.96542179    -0.09890
H679        H  0.73126945  0.23652278  0.96313524     0.09800
H680        H  0.80452767  0.29990235  0.96744148     0.07330
H681        H  0.82164508  0.20613195  0.96517760     0.07170
C682        C  0.73003193  0.35086505  0.95953550     0.04210
C683        C  0.69985046  0.34396823  0.95653325    -0.11940
C684        C  0.68917046  0.31539924  0.96343166     0.01710
C685        C  0.71041270  0.29277402  0.96958496    -0.10460
C686        C  0.74167791  0.29794397  0.96669952     0.04200
C687        C  0.75094788  0.32799335  0.96335511    -0.09890
H688        H  0.68449808  0.36174606  0.95063227     0.09800
H689        H  0.70225589  0.27142123  0.97697240     0.07330
H690        H  0.77404728  0.33455585  0.96396769     0.07170
C691        C  0.77741126  0.03380474  0.14914582     0.04210
C692        C  0.80712138  0.03393788  0.15870431    -0.11940
C693        C  0.81390664  0.03506005  0.18908341     0.01710
C694        C  0.79092834  0.03588832  0.21031284    -0.10460
C695        C  0.76060244  0.03401796  0.20154995     0.04200
C696        C  0.75429300  0.03288756  0.17046372    -0.09890
H697        H  0.82508765  0.03377575  0.14237657     0.09800
H698        H  0.79729548  0.03830268  0.23349570     0.07330
H699        H  0.73165945  0.03143744  0.16227364     0.07170
C700        C  0.72034816  0.03058632  0.27735252     0.04210
C701        C  0.74225159  0.02723267  0.25501303    -0.11940
C702        C  0.73603645  0.03404769  0.22470098     0.01710
C703        C  0.70616073  0.04118546  0.21704036    -0.10460
C704        C  0.68343926  0.04120005  0.23870305     0.04200
C705        C  0.69107119  0.03735462  0.26873840    -0.09890
H706        H  0.76406307  0.01943342  0.26176942     0.09800
H707        H  0.69995479  0.04678791  0.19444146     0.07330
H708        H  0.67377806  0.03924111  0.28562804     0.07170
O709        O  0.73532488  0.03225538  0.92189487    -0.70700
O710        O  0.73847422  0.03411833  0.00697499    -0.70920
O711        O  0.73466016  0.07601156  0.96410336    -0.70770
O712        O  0.73922794  0.99099137  0.96504773    -0.70780
O713        O  0.78767405  0.99385406  0.96613650    -0.70740
O714        O  0.78296546  0.07792522  0.95894665    -0.70760
O715        O  0.78668583  0.03974527  0.00486577    -0.70700
O716        O  0.78390537  0.03146483  0.92042394    -0.70890
V717        V  0.73778745  0.03348668  0.96444355     1.35240
V718        V  0.78434937  0.03579580  0.96262692     1.35170
C719        C  0.75920276  0.03019084  0.90680370     0.78540
C720        C  0.76316946  0.03725346  0.02035052     0.78600
C721        C  0.75816301  0.09135690  0.96101705     0.78470
C722        C  0.76436252  0.97800747  0.96626366     0.78430
C723        C  0.72552567  0.22176375  0.45206677     0.04210
C724        C  0.69573458  0.22945407  0.44750949    -0.11940
C725        C  0.68520890  0.25804687  0.45498003     0.01710
C726        C  0.70603551  0.28053822  0.46195081    -0.10460
C727        C  0.73720956  0.27453426  0.46226186     0.04200
C728        C  0.74623625  0.24416256  0.45927890    -0.09890
H729        H  0.68004342  0.21206861  0.44124658     0.09800
H730        H  0.69730720  0.30224280  0.46773549     0.07330
H731        H  0.76896040  0.23717089  0.46343382     0.07170
C732        C  0.77278767  0.35181223  0.47697116     0.04210
C733        C  0.75141410  0.32907142  0.47376283    -0.11940
C734        C  0.75998109  0.29922735  0.46665081     0.01710
C735        C  0.79084950  0.29358891  0.46197844    -0.10460
C736        C  0.81254173  0.31553579  0.46775285     0.04200
C737        C  0.80310438  0.34434329  0.47594707    -0.09890
H738        H  0.72836102  0.33565399  0.47614793     0.09800
H739        H  0.79855926  0.27240931  0.45318487     0.07330
H740        H  0.81955414  0.36164906  0.47992850     0.07170
O741        O  0.71316097  0.03543326  0.42292220    -0.70700
O742        O  0.71795131  0.03504637  0.50732199    -0.70920
O743        O  0.71377908  0.07796296  0.46535934    -0.70770
O744        O  0.71755090  0.99287913  0.46475250    -0.70780
O745        O  0.76610402  0.99476876  0.46529946    -0.70740
O746        O  0.76203107  0.07965586  0.45970762    -0.70760
O747        O  0.76622193  0.03983327  0.50502484    -0.70700
O748        O  0.76149739  0.03406747  0.41988985    -0.70890
V749        V  0.71656355  0.03543171  0.46507048     1.35240
V750        V  0.76308444  0.03716754  0.46249316     1.35170
C751        C  0.73634655  0.03390258  0.40684128     0.78540
C752        C  0.74278656  0.03678081  0.52061359     0.78600
C753        C  0.73724296  0.09321638  0.46172044     0.78470
C754        C  0.74244881  0.97940769  0.46585084     0.78430
O755        O  0.78241259  0.54297318  0.50819986    -0.70700
O756        O  0.78485825  0.53018210  0.42396535    -0.70920
O757        O  0.78489915  0.57822741  0.46021018    -0.70770
O758        O  0.78271177  0.49461245  0.47223571    -0.70780
O759        O  0.73449609  0.49510932  0.46640492    -0.70740
O760        O  0.73667185  0.58052034  0.46329547    -0.70760
O761        O  0.73667766  0.53582319  0.42208788    -0.70700
O762        O  0.73394428  0.53978297  0.50710378    -0.70890
V763        V  0.78279734  0.53649389  0.46607338     1.35240
V764        V  0.73628209  0.53776938  0.46465863     1.35170
C765        C  0.75771856  0.54286373  0.52203678     0.78540
C766        C  0.76121040  0.53172712  0.40851327     0.78600
C767        C  0.76147300  0.59403495  0.46139059     0.78470
C768        C  0.75835808  0.48045868  0.47095034     0.78430
C769        C  0.76416773  0.38420006  0.47824137    -0.04260
C770        C  0.77517150  0.40280510  0.50143114    -0.01370
C771        C  0.77297920  0.43421764  0.49921357     0.03620
C772        C  0.75827574  0.44739779  0.47456199    -0.04260
C773        C  0.74545181  0.42881572  0.45238443    -0.01360
C774        C  0.74880702  0.39740441  0.45392176     0.03610
C775        C  0.78924201  0.38958690  0.52745027     0.38260
C776        C  0.73082032  0.44210072  0.42670714     0.38250
C777        C  0.73831487  0.37894444  0.42926956     0.36680
C778        C  0.78650529  0.45294969  0.52211768     0.36680
N779        N  0.73005545  0.36425793  0.40953374    -0.38140
N780        N  0.79754966  0.46778429  0.54030580    -0.38140
N781        N  0.71925092  0.45274615  0.40620574    -0.37590
N782        N  0.80049202  0.37902318  0.54816804    -0.37590
C783        C  0.73309377  0.18936374  0.45383869    -0.04260
C784        C  0.73640746  0.17601335  0.48222659    -0.01370
C785        C  0.73689456  0.14457424  0.48488197     0.03620
C786        C  0.73572482  0.12623918  0.45909893    -0.04260
C787        C  0.73264093  0.13953995  0.43069480    -0.01360
C788        C  0.73117274  0.17097711  0.42808909     0.03610
C789        C  0.73760958  0.19463597  0.50894507     0.38260
C790        C  0.72892063  0.12089152  0.40430059     0.38250
C791        C  0.72674772  0.18445712  0.39899042     0.36680
C792        C  0.73586640  0.13123283  0.51429635     0.36680
N793        N  0.72304971  0.19523494  0.37581518    -0.38140
N794        N  0.73397960  0.12116689  0.53798628    -0.38140
N795        N  0.72537183  0.10635434  0.38308857    -0.37590
N796        N  0.73863394  0.20954352  0.53020046    -0.37590
C797        C  0.73374856  0.03156796  0.37351962    -0.04260
C798        C  0.70944911  0.01599248  0.36036366    -0.01370
C799        C  0.70795627  0.01209957  0.32911547     0.03620
C800        C  0.72746818  0.02803205  0.31008716    -0.04260
C801        C  0.75125645  0.04449355  0.32311521    -0.01360
C802        C  0.75514840  0.04506569  0.35453950     0.03610
C803        C  0.68517196  0.00451066  0.37855076     0.38260
C804        C  0.77094719  0.06226781  0.30455819     0.38250
C805        C  0.78000599  0.06164844  0.36722442     0.36680
C806        C  0.68633283  0.99128329  0.31662764     0.36680
N807        N  0.79978178  0.07496381  0.37729205    -0.38140
N808        N  0.66911416  0.97468735  0.30671506    -0.38140
N809        N  0.78671704  0.07649397  0.28988212    -0.37590
N810        N  0.66554247  0.99562920  0.39283276    -0.37590
C811        C  0.77105342  0.03573088  0.11649272    -0.04260
C812        C  0.75667499  0.01202997  0.10124503    -0.01370
C813        C  0.75332283  0.01294175  0.06984301     0.03620
C814        C  0.76474567  0.03733747  0.05346827    -0.04260
C815        C  0.77882635  0.06115710  0.06873685    -0.01360
C816        C  0.78142483  0.06064597  0.10014562     0.03610
C817        C  0.74653990  0.98607912  0.11766247     0.38260
C818        C  0.79074287  0.08625532  0.05214996     0.38250
C819        C  0.79467404  0.08595297  0.11570708     0.36680
C820        C  0.73973283  0.98788267  0.05420591     0.36680
N821        N  0.80522612  0.10610386  0.12814723    -0.38140
N822        N  0.72901005  0.96786256  0.04169841    -0.38140
N823        N  0.80042027  0.10621232  0.03897261    -0.37590
N824        N  0.73846621  0.96539139  0.13079067    -0.37590
C825        C  0.76510575  0.18705735  0.96186828    -0.04260
C826        C  0.75237114  0.17228220  0.98660456    -0.01370
C827        C  0.74767932  0.14105576  0.98542074     0.03620
C828        C  0.75724048  0.12441521  0.96013795    -0.04260
C829        C  0.76841424  0.13948587  0.93486386    -0.01360
C830        C  0.77095137  0.17085417  0.93529778     0.03610
C831        C  0.74512438  0.18901261  0.01358667     0.38260
C832        C  0.77793991  0.12272517  0.90858499     0.38250
C833        C  0.77852714  0.18660608  0.90810635     0.36680
C834        C  0.73452609  0.12588702  0.01079779     0.36680
N835        N  0.78363067  0.19905858  0.88608673    -0.38140
N836        N  0.72391414  0.11378858  0.03098949    -0.38140
N837        N  0.78594206  0.10948234  0.88769720    -0.37590
N838        N  0.73933476  0.20239416  0.03510537    -0.37590
C839        C  0.74207774  0.44584310  0.96306197    -0.04260
C840        C  0.75313980  0.42948437  0.93817103    -0.01370
C841        C  0.75087746  0.39798074  0.93742759     0.03620
C842        C  0.73858962  0.38279320  0.96197660    -0.04260
C843        C  0.73072718  0.39887872  0.98810813    -0.01360
C844        C  0.73097468  0.43033747  0.98813327     0.03610
C845        C  0.76496135  0.44489377  0.91242740     0.38260
C846        C  0.72278274  0.38289377  0.01510970     0.38250
C847        C  0.71875118  0.44662766  0.01358483     0.36680
C848        C  0.76046366  0.38119083  0.91121928     0.36680
N849        N  0.70844541  0.45941041  0.03373662    -0.38140
N850        N  0.76821060  0.36769935  0.89039491    -0.38140
N851        N  0.71684144  0.37008594  0.03672332    -0.37590
N852        N  0.77442440  0.45644260  0.89140698    -0.37590
C853        C  0.76955348  0.52845378  0.31194159    -0.04260
C854        C  0.78385942  0.50666638  0.32980634    -0.01370
C855        C  0.78052690  0.50724544  0.36125036     0.03620
C856        C  0.76246739  0.52933257  0.37520673    -0.04260
C857        C  0.74662016  0.54986742  0.35715438    -0.01360
C858        C  0.75038957  0.54964919  0.32576790     0.03610
C859        C  0.80197445  0.48347101  0.31581084     0.38260
C860        C  0.72737956  0.57229102  0.37075620     0.38250
C861        C  0.73564140  0.57233176  0.30790620     0.36680
C862        C  0.79529346  0.48465896  0.37919048     0.36680
N863        N  0.72384343  0.59038158  0.29367176    -0.38140
N864        N  0.80702718  0.46664013  0.39351586    -0.38140
N865        N  0.71179200  0.59025995  0.38114964    -0.37590
N866        N  0.81647837  0.46501056  0.30466472    -0.37590
C867        C  0.73714142  0.53609448  0.05478135    -0.04260
C868        C  0.75042360  0.51337626  0.07210854    -0.01370
C869        C  0.74550195  0.51257296  0.10335550     0.03620
C870        C  0.72836617  0.53526637  0.11757759    -0.04260
C871        C  0.71725503  0.55931506  0.10040286    -0.01360
C872        C  0.72122199  0.55947266  0.06913151     0.03610
C873        C  0.76818930  0.49020644  0.05767631     0.38260
C874        C  0.70181728  0.58409208  0.11494149     0.38250
C875        C  0.70921273  0.58402784  0.05169777     0.36680
C876        C  0.75684983  0.48761689  0.12056248     0.36680
N877        N  0.69965309  0.60361898  0.03783756    -0.38140
N878        N  0.76587023  0.46770278  0.13431834    -0.38140
N879        N  0.68950908  0.60381945  0.12656148    -0.37590
N880        N  0.78241608  0.47174177  0.04617602    -0.37590
C881        C  0.58770908  0.53109269  0.20374749    -0.04260
C882        C  0.60453140  0.55592417  0.21378395    -0.01370
C883        C  0.63591831  0.55619164  0.21004943     0.03620
C884        C  0.65067715  0.53127449  0.19708933    -0.04260
C885        C  0.63398474  0.50579031  0.18874602    -0.01360
C886        C  0.60260013  0.50600218  0.19127478     0.03610
C887        C  0.58937929  0.58208633  0.22591479     0.38260
C888        C  0.64918544  0.47938396  0.17716323     0.38250
C889        C  0.58564517  0.48061798  0.18018407     0.36680
C890        C  0.65279676  0.58276034  0.21789096     0.36680
N891        N  0.57229621  0.46043724  0.17094796    -0.38140
N892        N  0.66629665  0.60397541  0.22401755    -0.38140
N893        N  0.66137608  0.45834388  0.16801314    -0.37590
N894        N  0.57727892  0.60299683  0.23548505    -0.37590
C895        C  0.65212719  0.26290845  0.45794784    -0.04260
C896        C  0.63464010  0.24114016  0.47269007    -0.01370
C897        C  0.60338096  0.24166545  0.47031752     0.03620
C898        C  0.58857208  0.26744475  0.45933611    -0.04260
C899        C  0.60601552  0.29069316  0.44686384    -0.01360
C900        C  0.63747994  0.28767384  0.44476547     0.03610
C901        C  0.64856091  0.21833959  0.49116058     0.38260
C902        C  0.59168305  0.31690512  0.43428540     0.38250
C903        C  0.65439449  0.30960425  0.42808451     0.36680
C904        C  0.58715084  0.21463467  0.47779675     0.36680
N905        N  0.66776893  0.32720172  0.41477941    -0.38140
N906        N  0.57454474  0.19274000  0.48318426    -0.38140
N907        N  0.58033697  0.33787685  0.42428568    -0.37590
N908        N  0.65949379  0.20019049  0.50594391    -0.37590
C909        C  0.90684616  0.53840426  0.21859546    -0.04260
C910        C  0.89105519  0.51121992  0.21919582    -0.01370
C911        C  0.86032527  0.51120970  0.22606340     0.03620
C912        C  0.84510844  0.53853513  0.23088340    -0.04260
C913        C  0.86010792  0.56579741  0.22626204    -0.01360
C914        C  0.89093013  0.56567050  0.21956308     0.03610
C915        C  0.90586717  0.48361488  0.21054013     0.38260
C916        C  0.84388817  0.59385057  0.22861562     0.38250
C917        C  0.90563509  0.59316554  0.21115350     0.36680
C918        C  0.84433691  0.48312482  0.22829705     0.36680
N919        N  0.91676432  0.61509581  0.20333910    -0.38140
N920        N  0.83150449  0.46077223  0.23009338    -0.38140
N921        N  0.83092079  0.61623569  0.23045724    -0.37590
N922        N  0.91714221  0.46161297  0.20258893    -0.37590
C923        C  0.26329501  0.54788344  0.11649004    -0.04260
C924        C  0.24327535  0.52748627  0.10265750    -0.01370
C925        C  0.23995950  0.52697561  0.07119162     0.03620
C926        C  0.25796992  0.54545582  0.05307460    -0.04260
C927        C  0.27645630  0.56711379  0.06689997    -0.01360
C928        C  0.27828426  0.56897685  0.09839196     0.03610
C929        C  0.22740835  0.50556572  0.12038929     0.38260
C930        C  0.29367608  0.58765599  0.04874685     0.38250
C931        C  0.29584152  0.59259382  0.11216833     0.36680
C932        C  0.21916055  0.50613196  0.05749615     0.36680
N933        N  0.30989711  0.61138538  0.12313769    -0.38140
N934        N  0.20249992  0.48956277  0.04661567    -0.38140
N935        N  0.30748148  0.60397209  0.03428397    -0.37590
N936        N  0.21468372  0.48805509  0.13443343    -0.37590
C937        C  0.34394988  0.53037524  0.19142130    -0.04260
C938        C  0.35701694  0.54551023  0.21608755    -0.01370
C939        C  0.38844982  0.54596102  0.21971502     0.03620
C940        C  0.40742764  0.53440366  0.19694433    -0.04260
C941        C  0.39416714  0.51986557  0.17190357    -0.01360
C942        C  0.36299103  0.51566420  0.17068158     0.03610
C943        C  0.33845432  0.56196843  0.23715804     0.38260
C944        C  0.41225262  0.50863105  0.14718767     0.38250
C945        C  0.35059340  0.49554532  0.14823859     0.36680
C946        C  0.40092478  0.55914337  0.24667203     0.36680
N947        N  0.34075066  0.47946860  0.13040967    -0.38140
N948        N  0.41053421  0.56921628  0.26855002    -0.38140
N949        N  0.42647639  0.49966386  0.12738246    -0.37590
N950        N  0.32386113  0.57526521  0.25404113    -0.37590
C951        C  0.14947483  0.52559420  0.22902196    -0.04260
C952        C  0.13031659  0.50397558  0.24146774    -0.01370
C953        C  0.09906338  0.50775534  0.24008349     0.03620
C954        C  0.08667171  0.53084402  0.22253612    -0.04260
C955        C  0.10605898  0.54840627  0.20490823    -0.01360
C956        C  0.13723384  0.54731356  0.20972374     0.03610
C957        C  0.14256778  0.47609328  0.25229136     0.38260
C958        C  0.09451488  0.56622216  0.18064199     0.38250
C959        C  0.15647196  0.56876334  0.19500747     0.36680
C960        C  0.07974167  0.48669583  0.25528957     0.36680
N961        N  0.17177093  0.58586702  0.18320060    -0.38140
N962        N  0.06440310  0.46989253  0.26747072    -0.38140
N963        N  0.08624881  0.57936179  0.16005245    -0.37590
N964        N  0.15157924  0.45291384  0.25933403    -0.37590
C965        C  0.23156306  0.53742467  0.37421414    -0.04260
C966        C  0.24964038  0.55478713  0.35504111    -0.01370
C967        C  0.24491280  0.55409395  0.32361933     0.03620
C968        C  0.22530661  0.53273133  0.31070306    -0.04260
C969        C  0.20975520  0.51334052  0.33013576    -0.01360
C970        C  0.21018037  0.51806116  0.36123100     0.03610
C971        C  0.27219102  0.57439589  0.36740488     0.38260
C972        C  0.19496130  0.48684516  0.31881687     0.38250
C973        C  0.18827089  0.50264530  0.37955180     0.36680
C974        C  0.25895197  0.57653694  0.30511557     0.36680
N975        N  0.17050793  0.49060058  0.39392577    -0.38140
N976        N  0.26989733  0.59480464  0.29056613    -0.38140
N977        N  0.18371174  0.46482211  0.31128651    -0.37590
N978        N  0.29069005  0.58994525  0.37657952    -0.37590
C979        C  0.84939867  0.25995266  0.96561265    -0.04260
C980        C  0.86762474  0.24774526  0.94256213    -0.01370
C981        C  0.89896732  0.25139210  0.94324624     0.03620
C982        C  0.91257465  0.26813904  0.96638051    -0.04260
C983        C  0.89437698  0.28171351  0.98850590    -0.01360
C984        C  0.86305800  0.27724573  0.98846290     0.03610
C985        C  0.85433371  0.23209100  0.91741396     0.38260
C986        C  0.90778632  0.29951232  0.01204134     0.38250
C987        C  0.84510835  0.28964918  0.01265562     0.36680
C988        C  0.91723926  0.23845652  0.91952274     0.36680
N989        N  0.83078789  0.29963884  0.03189388    -0.38140
N990        N  0.93176705  0.22813833  0.90061322    -0.38140
N991        N  0.91777486  0.31392477  0.03110831    -0.37590
N992        N  0.84451043  0.21958508  0.89695051    -0.37590
C993        C  0.90786421  0.03569938  0.20753584    -0.04260
C994        C  0.89147548  0.06266792  0.20909062    -0.01370
C995        C  0.86036834  0.06248324  0.20406958     0.03620
C996        C  0.84561789  0.03520641  0.19836876    -0.04260
C997        C  0.86155756  0.00800949  0.19995734    -0.01360
C998        C  0.89260915  0.00826047  0.20503633     0.03610
C999        C  0.90643298  0.09038355  0.21673985     0.38260
C1000       C  0.84602336  0.97983006  0.19587236     0.38250
C1001       C  0.90845795  0.98033599  0.20939483     0.36680
C1002       C  0.84366115  0.09033562  0.20388357     0.36680
N1003       N  0.92038210  0.95781259  0.21386187    -0.38140
N1004       N  0.83027429  0.11253136  0.20370069    -0.38140
N1005       N  0.83358731  0.95738866  0.19257408    -0.37590
N1006       N  0.91803726  0.11248286  0.22360252    -0.37590
C1007       C  0.99646238  0.38443642  0.23293132    -0.04260
C1008       C  0.01865946  0.39831754  0.21520674    -0.01370
C1009       C  0.01778204  0.42957000  0.21038299     0.03620
C1010       C  0.99554808  0.44733621  0.22438914    -0.04260
C1011       C  0.97383283  0.43344689  0.24262624    -0.01360
C1012       C  0.97328483  0.40212514  0.24534651     0.03610
C1013       C  0.04330115  0.38076342  0.20321018     0.38260
C1014       C  0.95246283  0.45128962  0.25962831     0.38250
C1015       C  0.94831018  0.38819691  0.26049872     0.36680
C1016       C  0.04128019  0.44373556  0.19319151     0.36680
N1017       N  0.92789659  0.37769478  0.27230336    -0.38140
N1018       N  0.06012586  0.45511249  0.17968041    -0.38140
N1019       N  0.93561184  0.46534323  0.27355950    -0.37590
N1020       N  0.06299253  0.36674749  0.19371568    -0.37590
C1021       C  0.01359851  0.26834859  0.11772300    -0.04260
C1022       C  0.99657305  0.29163973  0.10465800    -0.01370
C1023       C  0.99722546  0.29602034  0.07338347     0.03620
C1024       C  0.01212258  0.27518990  0.05456945    -0.04260
C1025       C  0.03092346  0.25338524  0.06778514    -0.01360
C1026       C  0.03246527  0.25078688  0.09915767     0.03610
C1027       C  0.97694328  0.31015948  0.12293489     0.38260
C1028       C  0.04952730  0.23403369  0.04923508     0.38250
C1029       C  0.05363114  0.22999734  0.11233202     0.36680
C1030       C  0.98274623  0.32215751  0.06091667     0.36680
N1031       N  0.07048524  0.21342521  0.12283343    -0.38140
N1032       N  0.97196444  0.34361414  0.05133650    -0.38140
N1033       N  0.06441082  0.21863353  0.03449661    -0.37590
N1034       N  0.96121083  0.32493775  0.13741884    -0.37590
C1035       C  0.99449182  0.19055968  0.19489059    -0.04260
C1036       C  0.01508979  0.17655832  0.21439003    -0.01370
C1037       C  0.01482383  0.14517659  0.21793677     0.03620
C1038       C  0.99447148  0.12744253  0.20145522    -0.04260
C1039       C  0.97357182  0.14156237  0.18231928    -0.01360
C1040       C  0.97299202  0.17295589  0.17985460     0.03610
C1041       C  0.03773953  0.19418308  0.22957009     0.38260
C1042       C  0.95277372  0.12390531  0.16463810     0.38250
C1043       C  0.95018969  0.18719353  0.16169547     0.36680
C1044       C  0.03708387  0.13103175  0.23678870     0.36680
N1045       N  0.93201452  0.19854182  0.14723065    -0.38140
N1046       N  0.05490821  0.11972200  0.25171290    -0.38140
N1047       N  0.93628276  0.10990982  0.15037903    -0.37590
N1048       N  0.05578490  0.20824926  0.24168737    -0.37590
C1049       C  0.22990988  0.02907410  0.11522504    -0.04260
C1050       C  0.21794886  0.00571712  0.09748346    -0.01370
C1051       C  0.22134714  0.00613844  0.06613843     0.03620
C1052       C  0.23707163  0.02968030  0.05241065    -0.04260
C1053       C  0.25050745  0.05209871  0.07018098    -0.01360
C1054       C  0.24687683  0.05186433  0.10152393     0.03610
C1055       C  0.20197649  0.98132967  0.11151132     0.38260
C1056       C  0.26653314  0.07641392  0.05606077     0.38250
C1057       C  0.25925681  0.07600443  0.11946036     0.36680
C1058       C  0.20871711  0.98229325  0.04795794     0.36680
N1059       N  0.26915937  0.09521016  0.13380571    -0.38140
N1060       N  0.19868044  0.96331014  0.03340707    -0.38140
N1061       N  0.27921477  0.09581985  0.04473114    -0.37590
N1062       N  0.18922139  0.96191088  0.12273308    -0.37590
C1063       C  0.15081964  0.04378873  0.19219015    -0.04260
C1064       C  0.13234316  0.06466843  0.17732505    -0.01370
C1065       C  0.10096072  0.06336784  0.18043538     0.03620
C1066       C  0.08769587  0.04153026  0.19891984    -0.04260
C1067       C  0.10632440  0.02218024  0.21554407    -0.01360
C1068       C  0.13767364  0.02299469  0.21188196     0.03610
C1069       C  0.14568038  0.08764635  0.15885930     0.38260
C1070       C  0.09342894  0.00052621  0.23569358     0.38250
C1071       C  0.15622986  0.00132805  0.22732382     0.36680
C1072       C  0.08237070  0.08507310  0.16511172     0.36680
N1073       N  0.17102139  0.98408731  0.23966671    -0.38140
N1074       N  0.06754263  0.10240525  0.15294104    -0.38140
N1075       N  0.08373342  0.98320235  0.25211640    -0.37590
N1076       N  0.15637781  0.10591219  0.14411424    -0.37590
C1077       C  0.27086109  0.38189117  0.97072928    -0.04260
C1078       C  0.26444819  0.39640816  0.94353871    -0.01370
C1079       C  0.25935056  0.42757823  0.94319715     0.03620
C1080       C  0.26232414  0.44461850  0.96976833    -0.04260
C1081       C  0.26819758  0.43000815  0.99703678    -0.01360
C1082       C  0.27165114  0.39861377  0.99761151     0.03610
C1083       C  0.26406264  0.37936985  0.91578177     0.38260
C1084       C  0.27100565  0.44726845  0.02447103     0.38250
C1085       C  0.27598655  0.38344313  0.02584353     0.36680
C1086       C  0.25144055  0.44209954  0.91538799     0.36680
N1087       N  0.27905473  0.37130040  0.04841639    -0.38140
N1088       N  0.24468962  0.45333575  0.89314289    -0.38140
N1089       N  0.27350920  0.46084947  0.04646090    -0.37590
N1090       N  0.26398682  0.36578165  0.89363685    -0.37590
C1091       C  0.23171350  0.18762571  0.97312423    -0.04260
C1092       C  0.21331214  0.16891002  0.99069434    -0.01370
C1093       C  0.21670972  0.13754975  0.98930400     0.03620
C1094       C  0.23972277  0.12443773  0.97173547    -0.04260
C1095       C  0.26091435  0.14331894  0.95799265    -0.01360
C1096       C  0.25612751  0.17461071  0.95738211     0.03610
C1097       C  0.19095734  0.18187277  0.01057409     0.38260
C1098       C  0.28756895  0.13076391  0.94423612     0.38250
C1099       C  0.27555677  0.19299009  0.93917160     0.36680
C1100       C  0.19691441  0.11883727  0.00684122     0.36680
N1101       N  0.29110216  0.20757484  0.92461677    -0.38140
N1102       N  0.18112188  0.10394849  0.02081303    -0.38140
N1103       N  0.30907562  0.12088935  0.93357374    -0.37590
N1104       N  0.17310450  0.19220757  0.02636073    -0.37590
C1105       C  0.15509064  0.26758971  0.96000003    -0.04260
C1106       C  0.13899072  0.26543586  0.93300148    -0.01370
C1107       C  0.10791324  0.27095672  0.93279390     0.03620
C1108       C  0.09260732  0.27707648  0.95980549    -0.04260
C1109       C  0.10902526  0.28130471  0.98640433    -0.01360
C1110       C  0.14022619  0.27662836  0.98650227     0.03610
C1111       C  0.15439359  0.25726310  0.90554153     0.38260
C1112       C  0.09383682  0.29051987  0.01365786     0.38250
C1113       C  0.15692981  0.28011132  0.01410905     0.36680
C1114       C  0.09218069  0.27223216  0.90456739     0.36680
N1115       N  0.17032972  0.28292712  0.03607896    -0.38140
N1116       N  0.08052436  0.27431677  0.88159424    -0.38140
N1117       N  0.08194170  0.29828445  0.03538935    -0.37590
N1118       N  0.16668640  0.25062771  0.88366268    -0.37590
C1119       C  0.26586875  0.03279983  0.30903597    -0.04260
C1120       C  0.27401541  0.00686450  0.32488667    -0.01370
C1121       C  0.27019701  0.00579871  0.35615291     0.03620
C1122       C  0.25900095  0.03093892  0.37187646    -0.04260
C1123       C  0.24895385  0.05612562  0.35578079    -0.01360
C1124       C  0.25251282  0.05710504  0.32441123     0.03610
C1125       C  0.28653902  0.98131292  0.30895265     0.38260
C1126       C  0.23560338  0.08133282  0.37152746     0.38250
C1127       C  0.24368812  0.08363645  0.30810303     0.36680
C1128       C  0.27617554  0.97815509  0.37172221     0.36680
N1129       N  0.23667999  0.10476732  0.29501435    -0.38140
N1130       N  0.28028325  0.95543112  0.38321498    -0.38140
N1131       N  0.22479258  0.10140410  0.38402045    -0.37590
N1132       N  0.29661285  0.96102077  0.29620192    -0.37590
C1133       C  0.90876375  0.30224995  0.46375458    -0.04260
C1134       C  0.89500949  0.32742519  0.45019772    -0.01370
C1135       C  0.86364877  0.32962088  0.44856864     0.03620
C1136       C  0.84535877  0.30919890  0.46418518    -0.04260
C1137       C  0.85895142  0.28396076  0.47765241    -0.01360
C1138       C  0.89027739  0.27969530  0.47590205     0.03610
C1139       C  0.91280863  0.35128243  0.43737185     0.38260
C1140       C  0.84107914  0.26281652  0.49440750     0.38250
C1141       C  0.90319356  0.25216825  0.48707493     0.36680
C1142       C  0.85027549  0.35265256  0.43002149     0.36680
N1143       N  0.91314874  0.22981799  0.49544645    -0.38140
N1144       N  0.83964374  0.37096826  0.41522579    -0.38140
N1145       N  0.82689197  0.24589179  0.50775988    -0.37590
N1146       N  0.92681983  0.37045269  0.42725381    -0.37590
C1147       C  0.00118703  0.30604567  0.31154773    -0.04260
C1148       C  0.97362052  0.30876159  0.32676541    -0.01370
C1149       C  0.97234903  0.30546035  0.35806862     0.03620
C1150       C  0.99851786  0.29878705  0.37426487    -0.04260
C1151       C  0.02546258  0.29299464  0.35869034    -0.01360
C1152       C  0.02686416  0.29688405  0.32737501     0.03610
C1153       C  0.94630074  0.31365571  0.31002629     0.38260
C1154       C  0.05173193  0.28309582  0.37486483     0.38250
C1155       C  0.05469934  0.29172210  0.31147006     0.36680
C1156       C  0.94380189  0.30755346  0.37329811     0.36680
N1157       N  0.07683553  0.28739876  0.29868932    -0.38140
N1158       N  0.92060799  0.30869466  0.38472208    -0.38140
N1159       N  0.07265374  0.27482785  0.38761581    -0.37590
N1160       N  0.92429559  0.31688253  0.29683977    -0.37590
C1161       C  0.26631481  0.18709422  0.45852755    -0.04260
C1162       C  0.27941575  0.16954219  0.43556446    -0.01370
C1163       C  0.27574739  0.13823647  0.43523646     0.03620
C1164       C  0.25797711  0.12417162  0.45726241    -0.04260
C1165       C  0.24292206  0.14196791  0.47882173    -0.01360
C1166       C  0.24741722  0.17326622  0.47971766     0.03610
C1167       C  0.29696054  0.18373611  0.41231197     0.38260
C1168       C  0.22445350  0.12793274  0.50140266     0.38250
C1169       C  0.23403314  0.19093634  0.50359669     0.36680
C1170       C  0.29066511  0.12051019  0.41226684     0.36680
N1171       N  0.22342272  0.20502341  0.52269584    -0.38140
N1172       N  0.30271311  0.10645233  0.39401010    -0.38140
N1173       N  0.20979157  0.11670900  0.51945972    -0.37590
N1174       N  0.31094753  0.19509846  0.39381364    -0.37590
C1175       C  0.34560721  0.26421297  0.47138014    -0.04260
C1176       C  0.35902566  0.27982808  0.44751593    -0.01370
C1177       C  0.39025372  0.28419519  0.44694704     0.03620
C1178       C  0.40837207  0.27291009  0.47014106    -0.04260
C1179       C  0.39474550  0.25851591  0.49471575    -0.01360
C1180       C  0.36349125  0.25422941  0.49533992     0.03610
C1181       C  0.34088767  0.28998941  0.42262046     0.38260
C1182       C  0.41292409  0.24804712  0.51942684     0.38250
C1183       C  0.34968791  0.23941083  0.52058418     0.36680
C1184       C  0.40367760  0.29854541  0.42135593     0.36680
N1185       N  0.33860380  0.22758153  0.54067988    -0.38140
N1186       N  0.41359546  0.30996976  0.40048416    -0.38140
N1187       N  0.42740911  0.23969811  0.53913740    -0.37590
N1188       N  0.32640827  0.29807362  0.40279535    -0.37590
C1189       C  0.08923729  0.29918345  0.46097818    -0.04260
C1190       C  0.10325833  0.32049580  0.44247526    -0.01370
C1191       C  0.13444299  0.32436912  0.44343139     0.03620
C1192       C  0.15220154  0.30769100  0.46368803    -0.04260
C1193       C  0.13821676  0.28558213  0.48147224    -0.01360
C1194       C  0.10699271  0.28095013  0.47962970     0.03610
C1195       C  0.08564027  0.33854153  0.42199863     0.38260
C1196       C  0.15550241  0.26849953  0.50287389     0.38250
C1197       C  0.09307761  0.25826373  0.49800791     0.36680
C1198       C  0.14785130  0.34580841  0.42324265     0.36680
N1199       N  0.08201728  0.24002980  0.51252507    -0.38140
N1200       N  0.15760363  0.36340071  0.40711487    -0.38140
N1201       N  0.16920764  0.25471913  0.51989374    -0.37590
N1202       N  0.07167143  0.35301502  0.40577487    -0.37590
C1203       C  0.23353952  0.38264781  0.46508685    -0.04260
C1204       C  0.23090940  0.39698775  0.43721340    -0.01370
C1205       C  0.23360001  0.42832371  0.43539264     0.03620
C1206       C  0.23941763  0.44537438  0.46139218    -0.04260
C1207       C  0.24594625  0.43054636  0.48846385    -0.01360
C1208       C  0.24249319  0.39923728  0.49044118     0.03610
C1209       C  0.22618166  0.37929352  0.41029928     0.38260
C1210       C  0.25671855  0.44737022  0.51410343     0.38250
C1211       C  0.24807447  0.38407674  0.51846034     0.36680
C1212       C  0.23230824  0.44254467  0.40644703     0.36680
N1213       N  0.25273085  0.37194751  0.54077276    -0.38140
N1214       N  0.23209986  0.45284625  0.38279146    -0.38140
N1215       N  0.26589888  0.46053133  0.53448567    -0.37590
N1216       N  0.22280960  0.36511087  0.38880510    -0.37590
C1217       C  0.59203768  0.30380550  0.96210927    -0.04260
C1218       C  0.61111890  0.27986011  0.95335344    -0.01370
C1219       C  0.64255945  0.28385363  0.95243198     0.03620
C1220       C  0.65577454  0.31011908  0.96462674    -0.04260
C1221       C  0.63639496  0.33262207  0.97627030    -0.01360
C1222       C  0.60532972  0.33092474  0.97180068     0.03610
C1223       C  0.59869198  0.25131413  0.94411701     0.38260
C1224       C  0.64762278  0.35745926  0.99405016     0.38250
C1225       C  0.58755100  0.35776184  0.97704031     0.36680
C1226       C  0.66078926  0.26130614  0.93757038     0.36680
N1227       N  0.57367708  0.37935465  0.98095532    -0.38140
N1228       N  0.67513295  0.24323079  0.92559699    -0.38140
N1229       N  0.65527691  0.37773853  0.00828575    -0.37590
N1230       N  0.58893241  0.22842338  0.93690925    -0.37590
C1231       C  0.41183897  0.29364402  0.97034216    -0.04260
C1232       C  0.39412349  0.28069829  0.94753751    -0.01370
C1233       C  0.36287920  0.28578538  0.94709765     0.03620
C1234       C  0.34903302  0.30237048  0.97041473    -0.04260
C1235       C  0.36650850  0.31247944  0.99478864    -0.01360
C1236       C  0.39777662  0.30877082  0.99441249     0.03610
C1237       C  0.40812782  0.26332364  0.92380442     0.38260
C1238       C  0.35230853  0.32675176  0.02041967     0.38250
C1239       C  0.41551469  0.32061220  0.01895314     0.36680
C1240       C  0.34534166  0.27543258  0.92181254     0.36680
N1241       N  0.42956262  0.33018511  0.03850898    -0.38140
N1242       N  0.33136266  0.26728658  0.90157633    -0.38140
N1243       N  0.34108416  0.33805014  0.04094653    -0.37590
N1244       N  0.41926198  0.24939567  0.90488079    -0.37590
C1245       C  0.58788745  0.04018573  0.22563164    -0.04260
C1246       C  0.60128647  0.06103529  0.24550342    -0.01370
C1247       C  0.63257723  0.06403832  0.24646680     0.03620
C1248       C  0.65109312  0.04370901  0.23063666    -0.04260
C1249       C  0.63779271  0.02268309  0.21087642    -0.01360
C1250       C  0.60634975  0.02153101  0.20778352     0.03610
C1251       C  0.58309878  0.07922004  0.26559690     0.38260
C1252       C  0.65619866  0.00093546  0.19504606     0.38250
C1253       C  0.59300908  0.99935605  0.18809175     0.36680
C1254       C  0.64577855  0.08807895  0.26400728     0.36680
N1255       N  0.58235360  0.98159676  0.17247763    -0.38140
N1256       N  0.65631761  0.10724137  0.27794399    -0.38140
N1257       N  0.67086612  0.98356564  0.18243848    -0.37590
N1258       N  0.56874145  0.09364588  0.28177636    -0.37590
C1259       C  0.40773682  0.03797103  0.22641463    -0.04260
C1260       C  0.38969079  0.01444240  0.21551057    -0.01370
C1261       C  0.35827818  0.01598233  0.21843981     0.03620
C1262       C  0.34465359  0.04133704  0.23173890    -0.04260
C1263       C  0.36258520  0.06518829  0.24194836    -0.01360
C1264       C  0.39398690  0.06309565  0.24027836     0.03610
C1265       C  0.40336703  0.98727101  0.20409924     0.38260
C1266       C  0.34861015  0.09178291  0.25458717     0.38250
C1267       C  0.41200956  0.08635169  0.25405791     0.36680
C1268       C  0.34007983  0.99060216  0.20957890     0.36680
N1269       N  0.42618108  0.10478865  0.26548168    -0.38140
N1270       N  0.32555347  0.97031227  0.20271253    -0.38140
N1271       N  0.33739614  0.11301146  0.26452588    -0.37590
N1272       N  0.41367821  0.96510623  0.19540431    -0.37590
C1273       C  0.50670269  0.30658274  0.11797614    -0.04260
C1274       C  0.52917731  0.31987803  0.10039338    -0.01370
C1275       C  0.52906283  0.31624587  0.06905286     0.03620
C1276       C  0.50662545  0.29908727  0.05484097    -0.04260
C1277       C  0.48518266  0.28422261  0.07257447    -0.01360
C1278       C  0.48507561  0.28813597  0.10401199     0.03610
C1279       C  0.55268652  0.33721299  0.11462900     0.38260
C1280       C  0.46236560  0.26597882  0.05843850     0.38250
C1281       C  0.46188808  0.27420563  0.12180949     0.36680
C1282       C  0.55283416  0.32956120  0.05173314     0.36680
N1283       N  0.44345125  0.26305310  0.13605255    -0.38140
N1284       N  0.57242727  0.34030645  0.03886860    -0.38140
N1285       N  0.44415803  0.25143554  0.04716120    -0.37590
N1286       N  0.57135804  0.35108316  0.12598788    -0.37590
C1287       C  0.49545400  0.38214683  0.19968171    -0.04260
C1288       C  0.51911449  0.39712401  0.21435657    -0.01370
C1289       C  0.51798451  0.42851244  0.21843201     0.03620
C1290       C  0.49345498  0.44503829  0.20734825    -0.04260
C1291       C  0.46848253  0.42956150  0.19585681    -0.01360
C1292       C  0.46964461  0.39832662  0.19155001     0.03610
C1293       C  0.54521090  0.38045405  0.22396602     0.38260
C1294       C  0.44068567  0.44523361  0.19060002     0.38250
C1295       C  0.44428452  0.38276515  0.17856848     0.36680
C1296       C  0.54224761  0.44380505  0.23356793     0.36680
N1297       N  0.42413077  0.37032260  0.16814915    -0.38140
N1298       N  0.56150315  0.45597215  0.24586635    -0.38140
N1299       N  0.41766151  0.45653202  0.18731314    -0.37590
N1300       N  0.56600239  0.36709434  0.23164517    -0.37590
C1301       C  0.49677549  0.12539550  0.21599555    -0.04260
C1302       C  0.52344265  0.14148025  0.22033399    -0.01370
C1303       C  0.52236034  0.17240510  0.22637075     0.03620
C1304       C  0.49460825  0.18752888  0.22688404    -0.04260
C1305       C  0.46850477  0.17226693  0.21799331    -0.01360
C1306       C  0.46973358  0.14119787  0.21199878     0.03610
C1307       C  0.55200657  0.12687839  0.21561067     0.38260
C1308       C  0.44049411  0.18841353  0.21548222     0.38250
C1309       C  0.44373342  0.12577666  0.20041523     0.36680
C1310       C  0.54981398  0.18874170  0.23194566     0.36680
N1311       N  0.42314820  0.11367232  0.19045727    -0.38140
N1312       N  0.57167934  0.20183454  0.23629612    -0.38140
N1313       N  0.41816310  0.20137653  0.21339923    -0.37590
N1314       N  0.57501436  0.11610752  0.21047564    -0.37590
C1315       C  0.50291509  0.26126548  0.31051846    -0.04260
C1316       C  0.52003942  0.24245427  0.32933896    -0.01370
C1317       C  0.51813566  0.24542141  0.36073971     0.03620
C1318       C  0.50073990  0.26856432  0.37384572    -0.04260
C1319       C  0.48733926  0.29002869  0.35497502    -0.01360
C1320       C  0.48684871  0.28543038  0.32365244     0.03610
C1321       C  0.54041355  0.22045486  0.31655741     0.38260
C1322       C  0.47489910  0.31741953  0.36738065     0.38250
C1323       C  0.46868091  0.30502494  0.30531241     0.36680
C1324       C  0.53560148  0.22554117  0.37950730     0.36680
N1325       N  0.45414532  0.32068823  0.29077372    -0.38140
N1326       N  0.54960344  0.20975985  0.39443268    -0.38140
N1327       N  0.46583860  0.33986019  0.37683535    -0.37590
N1328       N  0.55675117  0.20284971  0.30665720    -0.37590
C1329       C  0.34635197  0.79682841  0.46878813    -0.04260
C1330       C  0.36144603  0.80046960  0.44136024    -0.01370
C1331       C  0.39284595  0.79861338  0.44024197     0.03620
C1332       C  0.40909214  0.78967884  0.46577375    -0.04260
C1333       C  0.39359864  0.78297074  0.49248738    -0.01360
C1334       C  0.36235914  0.78753631  0.49425936     0.03610
C1335       C  0.34456513  0.80634730  0.41431313     0.38260
C1336       C  0.40997621  0.77321604  0.51866479     0.38250
C1337       C  0.34681731  0.78381376  0.52246925     0.36680
C1338       C  0.40833684  0.80753806  0.41323297     0.36680
N1339       N  0.33437089  0.78102130  0.54499273    -0.38140
N1340       N  0.42029699  0.81546219  0.39174023    -0.38140
N1341       N  0.42298485  0.76532925  0.53955729    -0.37590
N1342       N  0.33101854  0.81061344  0.39270323    -0.37590
C1343       C  0.27354930  0.88059616  0.46756463    -0.04260
C1344       C  0.24875512  0.89476235  0.48155099    -0.01370
C1345       C  0.24284327  0.92541720  0.47668309     0.03620
C1346       C  0.26497084  0.94378593  0.46369235    -0.04260
C1347       C  0.29094126  0.92997223  0.45158752    -0.01360
C1348       C  0.29353594  0.89859092  0.45085111     0.03610
C1349       C  0.23084034  0.87888482  0.50324713     0.38260
C1350       C  0.31517720  0.94765751  0.43923133     0.38250
C1351       C  0.31655606  0.88533832  0.43198200     0.36680
C1352       C  0.21392785  0.93760470  0.48505425     0.36680
N1353       N  0.33517023  0.87562283  0.41672411    -0.38140
N1354       N  0.19053537  0.94699696  0.49116757    -0.38140
N1355       N  0.33466515  0.96155562  0.42952778    -0.37590
N1356       N  0.21699570  0.86664453  0.52125555    -0.37590
C1357       C  0.15132095  0.76624092  0.45483953    -0.04260
C1358       C  0.13314179  0.74611188  0.43859397    -0.01370
C1359       C  0.10223596  0.74499248  0.44412858     0.03620
C1360       C  0.08784498  0.76839026  0.46018588    -0.04260
C1361       C  0.10571197  0.79115969  0.47318530    -0.01360
C1362       C  0.13728174  0.78922161  0.47178874     0.03610
C1363       C  0.14637807  0.72569286  0.41680584     0.38260
C1364       C  0.09194132  0.81517406  0.49042163     0.38250
C1365       C  0.15498603  0.80988308  0.48939161     0.36680
C1366       C  0.08662247  0.71771132  0.43641656     0.36680
N1367       N  0.16884567  0.82645075  0.50365545    -0.38140
N1368       N  0.07534638  0.69489461  0.43184065    -0.38140
N1369       N  0.08104973  0.83435395  0.50419170    -0.37590
N1370       N  0.15687320  0.70947039  0.39939994    -0.37590
C1371       C  0.22752661  0.68845175  0.47749027    -0.04260
C1372       C  0.20968796  0.66997516  0.49584367    -0.01370
C1373       C  0.21213381  0.63855273  0.49375605     0.03620
C1374       C  0.23377774  0.62522677  0.47468425    -0.04260
C1375       C  0.25437201  0.64387110  0.45966679    -0.01360
C1376       C  0.25038908  0.67516500  0.45986303     0.03610
C1377       C  0.18875926  0.68328788  0.51698738     0.38260
C1378       C  0.27986114  0.63123372  0.44392181     0.38250
C1379       C  0.26890476  0.69329560  0.44041431     0.36680
C1380       C  0.19284533  0.62004906  0.51202684     0.36680
N1381       N  0.28370580  0.70761511  0.42484915    -0.38140
N1382       N  0.17743236  0.60533652  0.52659525    -0.38140
N1383       N  0.30085866  0.62163026  0.43209902    -0.37590
N1384       N  0.17201678  0.69393285  0.53375774    -0.37590
C1385       C  0.00391843  0.76796904  0.30805504    -0.04260
C1386       C  0.98822945  0.79163425  0.32241010    -0.01370
C1387       C  0.98881196  0.79443710  0.35394502     0.03620
C1388       C  0.00241329  0.77184747  0.37145878    -0.04260
C1389       C  0.01817241  0.74842738  0.35671512    -0.01360
C1390       C  0.02125791  0.74834435  0.32549990     0.03610
C1391       C  0.97013131  0.81221866  0.30513013     0.38260
C1392       C  0.02913371  0.72259388  0.37268643     0.38250
C1393       C  0.04191071  0.72740409  0.31127577     0.36680
C1394       C  0.97324175  0.81930309  0.36815210     0.36680
N1395       N  0.05832232  0.71071522  0.29998517    -0.38140
N1396       N  0.96080259  0.83916608  0.37939562    -0.38140
N1397       N  0.03673589  0.70076349  0.38412478    -0.37590
N1398       N  0.95568659  0.82871158  0.29144104    -0.37590
C1399       C  0.98656971  0.69069561  0.22935910    -0.04260
C1400       C  0.96691164  0.67149117  0.24477113    -0.01370
C1401       C  0.97056053  0.64021555  0.24269312     0.03620
C1402       C  0.99150011  0.62758310  0.22229771    -0.04260
C1403       C  0.00893023  0.64684958  0.20454100    -0.01360
C1404       C  0.00761595  0.67812067  0.20911867     0.03610
C1405       C  0.94281827  0.68391440  0.26284805     0.38260
C1406       C  0.02920391  0.63481879  0.18227185     0.38250
C1407       C  0.02945044  0.69700368  0.19442325     0.36680
C1408       C  0.95253484  0.62118617  0.26173755     0.36680
N1409       N  0.04700658  0.71198126  0.18285160    -0.38140
N1410       N  0.93817651  0.60615451  0.27703991    -0.38140
N1411       N  0.04522689  0.62622394  0.16379884    -0.37590
N1412       N  0.92356532  0.69381646  0.27718360    -0.37590
C1413       C  0.00725963  0.79760355  0.05274203    -0.04260
C1414       C  0.99050398  0.77836581  0.07115766    -0.01370
C1415       C  0.99051125  0.78257496  0.10250650     0.03620
C1416       C  0.00889912  0.80481561  0.11581224    -0.04260
C1417       C  0.02821337  0.82161564  0.09742248    -0.01360
C1418       C  0.02626742  0.81920054  0.06610293     0.03610
C1419       C  0.97174301  0.75543477  0.05785329     0.38260
C1420       C  0.05030383  0.84142390  0.11069975     0.38250
C1421       C  0.04414238  0.83906934  0.04776221     0.36680
C1422       C  0.97026699  0.76498387  0.12063177     0.36680
N1423       N  0.05829261  0.85504324  0.03324716    -0.38140
N1424       N  0.95413237  0.75080906  0.13495475    -0.38140
N1425       N  0.06787326  0.85724513  0.12124551    -0.37590
N1426       N  0.95681382  0.73710794  0.04727099    -0.37590
C1427       C  0.99064615  0.88387008  0.19360818    -0.04260
C1428       C  0.00715354  0.89669206  0.21752266    -0.01370
C1429       C  0.00699169  0.92800547  0.22220830     0.03620
C1430       C  0.99326925  0.94706301  0.20111946    -0.04260
C1431       C  0.97586336  0.93409279  0.17787736    -0.01360
C1432       C  0.97318521  0.90280455  0.17538303     0.03610
C1433       C  0.02559810  0.87807463  0.23658801     0.38260
C1434       C  0.95972639  0.95275048  0.15680197     0.38250
C1435       C  0.95198039  0.89010791  0.15424266     0.36680
C1436       C  0.02107238  0.94026368  0.24875786     0.36680
N1437       N  0.93506140  0.87998618  0.13744561    -0.38140
N1438       N  0.03160753  0.94953187  0.27054882    -0.38140
N1439       N  0.94682024  0.96749467  0.13996169    -0.37590
N1440       N  0.04037453  0.86335081  0.25184585    -0.37590
C1441       C  0.26794562  0.68658089  0.94958731    -0.04260
C1442       C  0.27535145  0.66799772  0.92497266    -0.01370
C1443       C  0.27208337  0.63668081  0.92704213     0.03620
C1444       C  0.26067438  0.62383114  0.95346517    -0.04260
C1445       C  0.25151771  0.64247325  0.97738233    -0.01360
C1446       C  0.25556034  0.67370037  0.97567196     0.03610
C1447       C  0.28659981  0.68115132  0.89762663     0.38260
C1448       C  0.23933913  0.62938101  0.00439607     0.38250
C1449       C  0.24873348  0.69231588  0.00156171     0.36680
C1450       C  0.28065649  0.61763216  0.90202664     0.36680
N1451       N  0.24340555  0.70715607  0.02223443    -0.38140
N1452       N  0.28757310  0.60250643  0.88204304    -0.38140
N1453       N  0.22957319  0.61897058  0.02592313    -0.37590
N1454       N  0.29551700  0.69172784  0.87581910    -0.37590
C1455       C  0.15623179  0.80149712  0.97212039    -0.04260
C1456       C  0.13885711  0.79668608  0.99789127    -0.01370
C1457       C  0.10775811  0.79239335  0.99517775     0.03620
C1458       C  0.09378818  0.79542798  0.96700424    -0.04260
C1459       C  0.11133899  0.79926983  0.94114799    -0.01360
C1460       C  0.14262847  0.80114248  0.94361378     0.03610
C1461       C  0.15292232  0.79672655  0.02710640     0.38260
C1462       C  0.09722324  0.80164353  0.91206027     0.38250
C1463       C  0.16092037  0.80268152  0.91682932     0.36680
C1464       C  0.09043405  0.78415513  0.02122938     0.36680
N1465       N  0.17558987  0.80352113  0.89549916    -0.38140
N1466       N  0.07724966  0.77675363  0.04218117    -0.38140
N1467       N  0.08613880  0.80380724  0.88879573    -0.37590
N1468       N  0.16416422  0.79694732  0.05041681    -0.37590
C1469       C  0.23179960  0.88047908  0.96195812    -0.04260
C1470       C  0.21256477  0.89776959  0.94375108    -0.01370
C1471       C  0.21381794  0.92920069  0.94454948     0.03620
C1472       C  0.23700444  0.94394853  0.96031973    -0.04260
C1473       C  0.25775905  0.92658659  0.97678113    -0.01360
C1474       C  0.25469119  0.89510741  0.97821508     0.03610
C1475       C  0.19138567  0.88337203  0.92373014     0.38260
C1476       C  0.28094358  0.94114598  0.99422195     0.38250
C1477       C  0.27426563  0.87806740  0.99760778     0.36680
C1478       C  0.19052400  0.94608086  0.92946261     0.36680
N1479       N  0.28991620  0.86450091  0.01306709    -0.38140
N1480       N  0.17175181  0.95936000  0.91761444    -0.38140
N1481       N  0.29940037  0.95273355  0.00820318    -0.37590
N1482       N  0.17434880  0.87244688  0.90758621    -0.37590
C1483       C  0.41253419  0.76791002  0.96182394    -0.04260
C1484       C  0.39363218  0.79127454  0.95159959    -0.01370
C1485       C  0.36229618  0.78708692  0.94997410     0.03620
C1486       C  0.34898747  0.76115234  0.96219219    -0.04260
C1487       C  0.36773804  0.73960995  0.97577734    -0.01360
C1488       C  0.39901301  0.74145513  0.97287458     0.03610
C1489       C  0.40605203  0.81958426  0.94208055     0.38260
C1490       C  0.35501629  0.71580285  0.99373591     0.38250
C1491       C  0.41674937  0.71551160  0.98110655     0.36680
C1492       C  0.34413591  0.80918287  0.93471578     0.36680
N1493       N  0.43061067  0.69458199  0.98744442    -0.38140
N1494       N  0.32976860  0.82688656  0.92252651    -0.38140
N1495       N  0.34491453  0.69690230  0.00810352    -0.37590
N1496       N  0.41555518  0.84250847  0.93495817    -0.37590
C1497       C  0.50193369  0.78843556  0.37619008    -0.04260
C1498       C  0.47810880  0.77642604  0.35922225    -0.01370
C1499       C  0.47658623  0.78180404  0.32808489     0.03620
C1500       C  0.49997459  0.79729127  0.31376496    -0.04260
C1501       C  0.52609791  0.80422633  0.32998738    -0.01360
C1502       C  0.52662155  0.80098163  0.36123953     0.03610
C1503       C  0.45523473  0.75879256  0.37373958     0.38260
C1504       C  0.55292272  0.81333634  0.31422582     0.38250
C1505       C  0.55309105  0.80962387  0.37777308     0.36680
C1506       C  0.45097342  0.77181869  0.31094492     0.36680
N1507       N  0.57464028  0.81634116  0.39036311    -0.38140
N1508       N  0.43059084  0.76373011  0.29720409    -0.38140
N1509       N  0.57447575  0.81991405  0.30154796    -0.37590
N1510       N  0.43716539  0.74440129  0.38526981    -0.37590
C1511       C  0.50405687  0.88178525  0.24142169    -0.04260
C1512       C  0.48900851  0.89429834  0.21647780    -0.01370
C1513       C  0.48941122  0.92556339  0.21144870     0.03620
C1514       C  0.50207395  0.94533806  0.23286708    -0.04260
C1515       C  0.51743284  0.93295337  0.25753019    -0.01360
C1516       C  0.51917536  0.90159737  0.26128844     0.03610
C1517       C  0.47174119  0.87537051  0.19646297     0.38260
C1518       C  0.53291096  0.95240607  0.27856968     0.38250
C1519       C  0.53733580  0.89025625  0.28557517     0.36680
C1520       C  0.47700189  0.93704119  0.18383047     0.36680
N1521       N  0.55184732  0.88239908  0.30544653    -0.38140
N1522       N  0.46768037  0.94589617  0.16141329    -0.38140
N1523       N  0.54525883  0.96781864  0.29537635    -0.37590
N1524       N  0.45789816  0.86041652  0.18044005    -0.37590
C1525       C  0.49824841  0.77096311  0.11854658    -0.04260
C1526       C  0.47454957  0.75838394  0.10190098    -0.01370
C1527       C  0.47351468  0.76180291  0.07062508     0.03620
C1528       C  0.49586850  0.77821011  0.05570200    -0.04260
C1529       C  0.51741351  0.79389610  0.07276481    -0.01360
C1530       C  0.51890646  0.78989916  0.10407796     0.03610
C1531       C  0.45123065  0.74170753  0.11701736     0.38260
C1532       C  0.53892512  0.81306751  0.05804041     0.38250
C1533       C  0.54265719  0.80401332  0.12107816     0.36680
C1534       C  0.44868379  0.74923145  0.05413424     0.36680
N1535       N  0.56155653  0.81533560  0.13467047    -0.38140
N1536       N  0.42816117  0.73933351  0.04195480    -0.38140
N1537       N  0.55604749  0.82840555  0.04629763    -0.37590
N1538       N  0.43269040  0.72839157  0.12908411    -0.37590
C1539       C  0.51071262  0.68846784  0.19161334    -0.04260
C1540       C  0.48789214  0.67596472  0.20952126    -0.01370
C1541       C  0.48517443  0.64458450  0.21213412     0.03620
C1542       C  0.50489978  0.62518366  0.19649688    -0.04260
C1543       C  0.52817597  0.63771603  0.17915026    -0.01360
C1544       C  0.53119573  0.66911330  0.17694730     0.03610
C1545       C  0.46615054  0.69532825  0.22418607     0.38260
C1546       C  0.54954101  0.61835587  0.16396438     0.38250
C1547       C  0.55562015  0.68155608  0.15968136     0.36680
C1548       C  0.46099115  0.63243032  0.22984979     0.36680
N1549       N  0.57505002  0.69152765  0.14587868    -0.38140
N1550       N  0.44156374  0.62311625  0.24407661    -0.38140
N1551       N  0.56659360  0.60294051  0.15184372    -0.37590
N1552       N  0.44884170  0.71076997  0.23589873    -0.37590
C1553       C  0.26993198  0.52205687  0.81009414    -0.04260
C1554       C  0.28737997  0.50317626  0.82845913    -0.01370
C1555       C  0.28542185  0.50542951  0.85988338     0.03620
C1556       C  0.26442205  0.52508297  0.87340184    -0.04260
C1557       C  0.24542552  0.54241154  0.85501050    -0.01360
C1558       C  0.24858241  0.54138070  0.82358067     0.03610
C1559       C  0.30749219  0.48131785  0.81500391     0.38260
C1560       C  0.22388305  0.56292666  0.86834403     0.38250
C1561       C  0.23093924  0.56159378  0.80537002     0.36680
C1562       C  0.30519728  0.48737992  0.87818278     0.36680
N1563       N  0.21682512  0.57769846  0.79089882    -0.38140
N1564       N  0.32109071  0.47308339  0.89271462    -0.38140
N1565       N  0.20672403  0.57931762  0.87892922    -0.37590
N1566       N  0.32357854  0.46396091  0.80426953    -0.37590
C1567       C  0.34504361  0.54173288  0.73061314    -0.04260
C1568       C  0.36184170  0.56293563  0.74692607    -0.01370
C1569       C  0.39328818  0.56236449  0.74580376     0.03620
C1570       C  0.40843247  0.54212700  0.72653737    -0.04260
C1571       C  0.39142040  0.52301250  0.70776626    -0.01360
C1572       C  0.35988379  0.52251946  0.71010615     0.03610
C1573       C  0.34665330  0.58524359  0.76532991     0.38260
C1574       C  0.40630796  0.50229203  0.68746438     0.38250
C1575       C  0.34293829  0.50114009  0.69246146     0.36680
C1576       C  0.40960349  0.58243745  0.76526278     0.36680
N1577       N  0.32940149  0.48418805  0.67827911    -0.38140
N1578       N  0.42129372  0.59867420  0.78166973    -0.38140
N1579       N  0.41814933  0.48576821  0.67124828    -0.37590
N1580       N  0.33457598  0.60297719  0.78001942    -0.37590
C1581       C  0.08813266  0.53382065  0.70766799    -0.04260
C1582       C  0.10293091  0.50781808  0.69729546    -0.01370
C1583       C  0.13426899  0.50747704  0.69451987     0.03620
C1584       C  0.15079603  0.53392020  0.69921123    -0.04260
C1585       C  0.13631369  0.55946800  0.71116512    -0.01360
C1586       C  0.10510222  0.55902292  0.71639931     0.03610
C1587       C  0.08593825  0.48138639  0.68918945     0.38260
C1588       C  0.15334773  0.58634435  0.71729062     0.38250
C1589       C  0.09042355  0.58466209  0.73005488     0.36680
C1590       C  0.14968937  0.47957635  0.68808351     0.36680
N1591       N  0.07881564  0.60504494  0.74125474    -0.38140
N1592       N  0.16195170  0.45710285  0.68387173    -0.38140
N1593       N  0.16697802  0.60779536  0.72214051    -0.37590
N1594       N  0.07259024  0.46028876  0.68236847    -0.37590
C1595       C  0.22690759  0.52726277  0.61743228    -0.04260
C1596       C  0.24745235  0.54749713  0.60443014    -0.01370
C1597       C  0.25204073  0.54763458  0.57310013     0.03620
C1598       C  0.23567933  0.52802807  0.55443091    -0.04260
C1599       C  0.21601844  0.50710114  0.56751422    -0.01360
C1600       C  0.21207750  0.50639084  0.59876763     0.03610
C1601       C  0.26284359  0.56927586  0.62301257     0.38260
C1602       C  0.19965027  0.48604143  0.54882834     0.38250
C1603       C  0.19276422  0.48378694  0.61146683     0.36680
C1604       C  0.27222746  0.56925878  0.55999385     0.36680
N1605       N  0.17717374  0.46545776  0.62073795    -0.38140
N1606       N  0.28831775  0.58649618  0.54950169    -0.38140
N1607       N  0.18652972  0.46928610  0.53402207    -0.37590
N1608       N  0.27520343  0.58660564  0.63781406    -0.37590
C1609       C  0.26554905  0.03889157  0.61507722    -0.04260
C1610       C  0.27219128  0.06462703  0.59825139    -0.01370
C1611       C  0.27066864  0.06370844  0.56677129     0.03620
C1612       C  0.25979899  0.03790477  0.55207502    -0.04260
C1613       C  0.24964827  0.01350765  0.56930040    -0.01360
C1614       C  0.25308879  0.01376194  0.60069972     0.03610
C1615       C  0.27880707  0.09255050  0.61349756     0.38260
C1616       C  0.23678730  0.98750915  0.55493861     0.38250
C1617       C  0.24410584  0.98809900  0.61820759     0.36680
C1618       C  0.28021806  0.08938636  0.54957577     0.36680
N1619       N  0.23675761  0.96771611  0.63220577    -0.38140
N1620       N  0.28811856  0.10980057  0.53592664    -0.38140
N1621       N  0.22627721  0.96634549  0.54441139    -0.37590
N1622       N  0.28315384  0.11507988  0.62562157    -0.37590
C1623       C  0.09025483  0.04097075  0.72725306    -0.04260
C1624       C  0.10706364  0.01447442  0.73103867    -0.01370
C1625       C  0.13843447  0.01573862  0.73329845     0.03620
C1626       C  0.15303917  0.04362574  0.73405237    -0.04260
C1627       C  0.13627344  0.07021865  0.73158230    -0.01360
C1628       C  0.10489829  0.06892143  0.72847992     0.03610
C1629       C  0.09209279  0.98632614  0.73639169     0.38260
C1630       C  0.15123964  0.09890211  0.73364686     0.38250
C1631       C  0.08761566  0.09632863  0.73018373     0.36680
C1632       C  0.15571200  0.98831852  0.73577953     0.36680
N1633       N  0.07441946  0.11849716  0.73269805    -0.38140
N1634       N  0.16951589  0.96646580  0.73758112    -0.38140
N1635       N  0.16323753  0.12174510  0.73536945    -0.37590
N1636       N  0.08078588  0.96384379  0.74210000    -0.37590
C1637       C  0.23338685  0.03832879  0.80998617    -0.04260
C1638       C  0.24314501  0.06403978  0.82555818    -0.01370
C1639       C  0.24658433  0.06331027  0.85692873     0.03620
C1640       C  0.24171328  0.03647259  0.87261587    -0.04260
C1641       C  0.23504980  0.01006859  0.85647407    -0.01360
C1642       C  0.22986584  0.01118649  0.82540462     0.03610
C1643       C  0.24871877  0.09147561  0.80935825     0.38260
C1644       C  0.23496460  0.98146284  0.87140928     0.38250
C1645       C  0.22054951  0.98449814  0.80931563     0.36680
C1646       C  0.25397484  0.09051074  0.87297885     0.36680
N1647       N  0.21295940  0.96324584  0.79652734    -0.38140
N1648       N  0.25963705  0.11267447  0.88515632    -0.38140
N1649       N  0.23587390  0.95815467  0.88241222    -0.37590
N1650       N  0.25338989  0.11325179  0.79633616    -0.37590
C1651       C  0.00651819  0.29863249  0.55420201    -0.04260
C1652       C  0.98590660  0.28421224  0.57316070    -0.01370
C1653       C  0.98855277  0.28693954  0.60454482     0.03620
C1654       C  0.01223941  0.30366506  0.61725641    -0.04260
C1655       C  0.03411516  0.31615398  0.59825586    -0.01360
C1656       C  0.03115405  0.31385250  0.56689653     0.03610
C1657       C  0.96093757  0.26789708  0.56053506     0.38260
C1658       C  0.05961536  0.33162763  0.61102562     0.38250
C1659       C  0.05372538  0.32693956  0.54767362     0.36680
C1660       C  0.96578637  0.27395701  0.62360608     0.36680
N1661       N  0.07173168  0.33736560  0.53236200    -0.38140
N1662       N  0.94764776  0.26355929  0.63878090    -0.38140
N1663       N  0.07989562  0.34402319  0.62125114    -0.37590
N1664       N  0.94086270  0.25476222  0.55090524    -0.37590
C1665       C  0.99869489  0.38219990  0.69524183    -0.04260
C1666       C  0.97791948  0.39921825  0.67877457    -0.01370
C1667       C  0.97773918  0.43057436  0.68120176     0.03620
C1668       C  0.99678725  0.44530834  0.70177948    -0.04260
C1669       C  0.01553256  0.42800639  0.72044875    -0.01360
C1670       C  0.01694253  0.39660555  0.71674900     0.03610
C1671       C  0.95654070  0.38439896  0.65920576     0.38260
C1672       C  0.03477549  0.44251363  0.74223116     0.38250
C1673       C  0.03815772  0.37937521  0.73415973     0.36680
C1674       C  0.95787932  0.44728907  0.66199061     0.36680
N1675       N  0.05500702  0.36559723  0.74810660    -0.38140
N1676       N  0.94191528  0.45949696  0.64583118    -0.38140
N1677       N  0.05016270  0.45406241  0.75958586    -0.37590
N1678       N  0.93955661  0.37260877  0.64360310    -0.37590
C1679       C  0.98925112  0.18955794  0.73118012    -0.04260
C1680       C  0.96913296  0.17173132  0.74756738    -0.01370
C1681       C  0.97205515  0.14039851  0.74718418     0.03620
C1682       C  0.99274929  0.12628707  0.72773302    -0.04260
C1683       C  0.00953211  0.14410432  0.70774966    -0.01360
C1684       C  0.00898182  0.17557307  0.71055046     0.03610
C1685       C  0.94550331  0.18571741  0.76518576     0.38260
C1686       C  0.02841018  0.13026939  0.68506107     0.38250
C1687       C  0.03007655  0.19317975  0.69343236     0.36680
C1688       C  0.95346537  0.12313021  0.76704312     0.36680
N1689       N  0.04696946  0.20713412  0.67977883    -0.38140
N1690       N  0.93831147  0.11063136  0.78370447    -0.38140
N1691       N  0.04343369  0.11932999  0.66689683    -0.37590
N1692       N  0.92669656  0.19683683  0.77922937    -0.37590
C1693       C  0.00627459  0.26540549  0.81090731    -0.04260
C1694       C  0.02362510  0.24639524  0.82917962    -0.01370
C1695       C  0.02015598  0.24705309  0.86046186     0.03620
C1696       C  0.00223391  0.26944237  0.87433931    -0.04260
C1697       C  0.98676525  0.29016105  0.85615116    -0.01360
C1698       C  0.98813187  0.28764845  0.82459982     0.03610
C1699       C  0.04535088  0.22607257  0.81575895     0.38260
C1700       C  0.96785991  0.31295658  0.86973147     0.38250
C1701       C  0.96975439  0.30717022  0.80640614     0.36680
C1702       C  0.03535675  0.22443552  0.87808817     0.36680
N1703       N  0.95513260  0.32280427  0.79192362    -0.38140
N1704       N  0.04740049  0.20628161  0.89198914    -0.38140
N1705       N  0.95277488  0.33116679  0.88051305    -0.37590
N1706       N  0.06263290  0.20986884  0.80508901    -0.37590
C1707       C  0.40951452  0.03972037  0.69940404    -0.04260
C1708       C  0.39655969  0.05747673  0.67677312    -0.01370
C1709       C  0.36539799  0.05952894  0.67371672     0.03620
C1710       C  0.34634568  0.04164798  0.69132991    -0.04260
C1711       C  0.35915260  0.02385362  0.71422242    -0.01360
C1712       C  0.39052853  0.02370270  0.71885008     0.03610
C1713       C  0.41500355  0.07350681  0.65564910     0.38260
C1714       C  0.34039260  0.00453175  0.73213598     0.38250
C1715       C  0.40326883  0.00566467  0.74250778     0.36680
C1716       C  0.35338320  0.08051798  0.65217016     0.36680
N1717       N  0.41342132  0.99125679  0.76138418    -0.38140
N1718       N  0.34513823  0.09743888  0.63453909    -0.38140
N1719       N  0.32546049  0.98910858  0.74646461    -0.37590
N1720       N  0.42864628  0.08599302  0.63772440    -0.37590
C1721       C  0.49668141  0.30304778  0.81174513    -0.04260
C1722       C  0.52307047  0.29349032  0.82605119    -0.01370
C1723       C  0.52352022  0.29004107  0.85745661     0.03620
C1724       C  0.49785987  0.29713495  0.87466208    -0.04260
C1725       C  0.47134953  0.30611239  0.86012817    -0.01360
C1726       C  0.47042407  0.30759259  0.82870679     0.03610
C1727       C  0.54991178  0.28808261  0.80856394     0.38260
C1728       C  0.44528630  0.31501941  0.87741014     0.38250
C1729       C  0.44224158  0.31307099  0.81365691     0.36680
C1730       C  0.55101932  0.28129769  0.87213222     0.36680
N1731       N  0.41964361  0.31668790  0.80161511    -0.38140
N1732       N  0.57320282  0.27448922  0.88351566    -0.38140
N1733       N  0.42454798  0.32281271  0.89091474    -0.37590
N1734       N  0.57132819  0.28372274  0.79461297    -0.37590
C1735       C  0.48972863  0.38371524  0.73592521    -0.04260
C1736       C  0.46926718  0.40254027  0.75125482    -0.01370
C1737       C  0.47000455  0.43368291  0.74709769     0.03620
C1738       C  0.49102482  0.44646227  0.72734820    -0.04260
C1739       C  0.51023113  0.42763539  0.71053358    -0.01360
C1740       C  0.50976416  0.39637899  0.71495946     0.03610
C1741       C  0.44724487  0.39010845  0.77147216     0.38260
C1742       C  0.53163146  0.44045812  0.68987399     0.38250
C1743       C  0.53099486  0.37753286  0.69895515     0.36680
C1744       C  0.44883663  0.45260129  0.76320771     0.36680
N1745       N  0.54786637  0.36253283  0.68608036    -0.38140
N1746       N  0.43205913  0.46765747  0.77614032    -0.38140
N1747       N  0.54866801  0.45069282  0.67336932    -0.37590
N1748       N  0.42955965  0.38089367  0.78787481    -0.37590
C1749       C  0.48921325  0.19062360  0.69189155    -0.04260
C1750       C  0.47755744  0.17122396  0.66970435    -0.01370
C1751       C  0.48487227  0.14068460  0.66990540     0.03620
C1752       C  0.49626222  0.12732299  0.69623485    -0.04260
C1753       C  0.50413361  0.14632532  0.72059356    -0.01360
C1754       C  0.50272735  0.17779331  0.71751056     0.03610
C1755       C  0.45797416  0.18250965  0.64639604     0.38260
C1756       C  0.51534622  0.13400480  0.74838076     0.38250
C1757       C  0.51662693  0.19649296  0.74020377     0.36680
C1758       C  0.48346381  0.12445577  0.64174031     0.36680
N1759       N  0.52787566  0.21110040  0.75844973    -0.38140
N1760       N  0.48347997  0.11228425  0.61878388    -0.38140
N1761       N  0.52397689  0.12445503  0.77078271    -0.37590
N1762       N  0.44232863  0.19144499  0.62786209    -0.37590
C1763       C  0.50629958  0.27118121  0.61763666    -0.04260
C1764       C  0.48442120  0.28901369  0.60331489    -0.01370
C1765       C  0.48377951  0.29091979  0.57175377     0.03620
C1766       C  0.50450627  0.27443547  0.55425418    -0.04260
C1767       C  0.52752944  0.25838077  0.56873375    -0.01360
C1768       C  0.52882551  0.25734907  0.60019340     0.03610
C1769       C  0.46152379  0.30415300  0.62082904     0.38260
C1770       C  0.55031224  0.24291317  0.55159159     0.38250
C1771       C  0.55325767  0.24161418  0.61470073     0.36680
C1772       C  0.46066202  0.30848776  0.55731826     0.36680
N1773       N  0.57263973  0.22896509  0.62624560    -0.38140
N1774       N  0.44225091  0.32252872  0.54579774    -0.38140
N1775       N  0.56912260  0.23021135  0.53908055    -0.37590
N1776       N  0.44334256  0.31634382  0.63481785    -0.37590
C1777       C  0.99872127  0.76859469  0.55206258    -0.04260
C1778       C  0.98419260  0.78957914  0.57098968    -0.01370
C1779       C  0.98357727  0.78527015  0.60238070     0.03620
C1780       C  0.99925483  0.76098392  0.61551931    -0.04260
C1781       C  0.01580150  0.74146245  0.59641140    -0.01360
C1782       C  0.01504998  0.74492085  0.56510529     0.03610
C1783       C  0.96926106  0.81537327  0.55827437     0.38260
C1784       C  0.03413340  0.71753080  0.60831109     0.38250
C1785       C  0.03209236  0.72426171  0.54634267     0.36680
C1786       C  0.96552457  0.80522004  0.62077554     0.36680
N1787       N  0.04557369  0.70769098  0.53151483    -0.38140
N1788       N  0.95118168  0.82125449  0.63537612    -0.38140
N1789       N  0.04874138  0.69773706  0.61625142    -0.37590
N1790       N  0.95751197  0.83609328  0.54821384    -0.37590
C1791       C  0.99780329  0.68819354  0.69879331    -0.04260
C1792       C  0.97383275  0.67362228  0.71294929    -0.01370
C1793       C  0.97473615  0.64229796  0.71672382     0.03620
C1794       C  0.99890320  0.62546874  0.70485908    -0.04260
C1795       C  0.02341376  0.64045623  0.69189744    -0.01360
C1796       C  0.02361983  0.67184233  0.69085276     0.03610
C1797       C  0.94822382  0.69081472  0.72326120     0.38260
C1798       C  0.04811146  0.62375793  0.67881557     0.38250
C1799       C  0.05084842  0.68751789  0.68306836     0.36680
C1800       C  0.94997738  0.62741593  0.73119575     0.36680
N1801       N  0.07275106  0.70009905  0.67764992    -0.38140
N1802       N  0.93003682  0.61594864  0.74289293    -0.38140
N1803       N  0.06763315  0.61061523  0.66783079    -0.37590
N1804       N  0.92787615  0.70458620  0.73164244    -0.37590
C1805       C  0.00341303  0.80921973  0.80977545    -0.04260
C1806       C  0.02113833  0.78613714  0.82252336    -0.01370
C1807       C  0.01998632  0.78047322  0.85365545     0.03620
C1808       C  0.00241886  0.79879696  0.87264855    -0.04260
C1809       C  0.98407858  0.82114635  0.85995275    -0.01360
C1810       C  0.98429620  0.82610400  0.82888297     0.03610
C1811       C  0.04180044  0.76903780  0.80403185     0.38260
C1812       C  0.96418083  0.83891159  0.87886123     0.38250
C1813       C  0.96438232  0.84882734  0.81723010     0.36680
C1814       C  0.03769602  0.75639491  0.86618649     0.36680
N1815       N  0.94828827  0.86757331  0.80963676    -0.38140
N1816       N  0.05172489  0.73710075  0.87617418    -0.38140
N1817       N  0.94834992  0.85309625  0.89382484    -0.37590
N1818       N  0.05825344  0.75530042  0.78933418    -0.37590
C1819       C  0.00193084  0.94644881  0.72285480    -0.04260
C1820       C  0.02446146  0.92979157  0.70792922    -0.01370
C1821       C  0.02600516  0.89846759  0.71167166     0.03620
C1822       C  0.00309691  0.88364838  0.72735785    -0.04260
C1823       C  0.97748658  0.89983789  0.73635959    -0.01360
C1824       C  0.97766225  0.93127475  0.73593601     0.03610
C1825       C  0.04580200  0.94469601  0.68873058     0.38260
C1826       C  0.95025742  0.88397933  0.74365684     0.38250
C1827       C  0.95237981  0.94790976  0.74794756     0.36680
C1828       C  0.05112210  0.88163889  0.69972611     0.36680
N1829       N  0.93220719  0.96112871  0.75756577    -0.38140
N1830       N  0.07114767  0.86818060  0.69013513    -0.38140
N1831       N  0.92825113  0.87129478  0.74836551    -0.37590
N1832       N  0.06263271  0.95653103  0.67311990    -0.37590
C1833       C  0.73673616  0.03209527  0.61636391    -0.04260
C1834       C  0.75407463  0.05485681  0.60316764    -0.01370
C1835       C  0.75909470  0.05457935  0.57190367     0.03620
C1836       C  0.74378321  0.03373326  0.55363060    -0.04260
C1837       C  0.72833415  0.00984693  0.56726725    -0.01360
C1838       C  0.72716127  0.00790945  0.59857679     0.03610
C1839       C  0.76628191  0.07868376  0.62156011     0.38260
C1840       C  0.71368481  0.98700927  0.54934299     0.38250
C1841       C  0.71905329  0.97993820  0.61252569     0.36680
C1842       C  0.77954016  0.07583432  0.55871093     0.36680
N1843       N  0.71420276  0.95701102  0.62331519    -0.38140
N1844       N  0.79621480  0.09254477  0.54826938    -0.38140
N1845       N  0.70163095  0.96883916  0.53531871    -0.37590
N1846       N  0.77605430  0.09768276  0.63626709    -0.37590
C1847       C  0.65301567  0.03551225  0.69077641    -0.04260
C1848       C  0.63946214  0.05663861  0.71044130    -0.01370
C1849       C  0.60817280  0.05616210  0.71551806     0.03620
C1850       C  0.58996330  0.03540231  0.70010139    -0.04260
C1851       C  0.60351786  0.01392346  0.68109601    -0.01360
C1852       C  0.63472068  0.01360023  0.67695387     0.03610
C1853       C  0.65737310  0.07975267  0.72455212     0.38260
C1854       C  0.58533720  0.99160013  0.66585689     0.38250
C1855       C  0.64756270  0.98989615  0.65877452     0.36680
C1856       C  0.59469049  0.07787225  0.73569103     0.36680
N1857       N  0.65627538  0.97036722  0.64406073    -0.38140
N1858       N  0.58415531  0.09517509  0.75197891    -0.38140
N1859       N  0.57092614  0.97389185  0.65360564    -0.37590
N1860       N  0.67162683  0.09816685  0.73590307    -0.37590
C1861       C  0.76508603  0.02084282  0.81098216    -0.04260
C1862       C  0.74838862  0.04472282  0.82384458    -0.01370
C1863       C  0.74465245  0.04669549  0.85518334     0.03620
C1864       C  0.75870302  0.02567098  0.87392013    -0.04260
C1865       C  0.77390940  0.00095349  0.86108691    -0.01360
C1866       C  0.77661675  0.99827317  0.82974555     0.03610
C1867       C  0.73670176  0.06844269  0.80514276     0.38260
C1868       C  0.78680637  0.97816795  0.88017023     0.38250
C1869       C  0.79161701  0.97241413  0.81678243     0.36680
C1870       C  0.72766203  0.07126445  0.86820052     0.36680
N1871       N  0.80361468  0.95182753  0.80641132    -0.38140
N1872       N  0.71406108  0.09082270  0.87859049    -0.38140
N1873       N  0.79715508  0.95999062  0.89532258    -0.37590
N1874       N  0.72742157  0.08740570  0.79026430    -0.37590
C1875       C  0.84631442  0.03520003  0.73621595    -0.04260
C1876       C  0.86474822  0.04906891  0.75783980    -0.01370
C1877       C  0.89582992  0.04486470  0.75696670     0.03620
C1878       C  0.90992113  0.03359256  0.73066274    -0.04260
C1879       C  0.89159605  0.02256262  0.70723713    -0.01360
C1880       C  0.86007316  0.02184963  0.71071521     0.03610
C1881       C  0.85192067  0.06806191  0.78112841     0.38260
C1882       C  0.90507110  0.00964567  0.68054585     0.38250
C1883       C  0.84223504  0.00620720  0.68853522     0.36680
C1884       C  0.91225350  0.04951897  0.78458688     0.36680
N1885       N  0.82817298  0.99369255  0.67071751    -0.38140
N1886       N  0.92482688  0.05217975  0.80707586    -0.38140
N1887       N  0.91586810  0.99934277  0.65927348    -0.37590
N1888       N  0.84176363  0.08325054  0.79963356    -0.37590
C1889       C  0.72790902  0.68979878  0.96858839    -0.04260
C1890       C  0.70737691  0.67234275  0.95199458    -0.01370
C1891       C  0.70746201  0.64104919  0.95446580     0.03620
C1892       C  0.73160370  0.62614656  0.96851338    -0.04260
C1893       C  0.75351669  0.64358003  0.98348833    -0.01360
C1894       C  0.75095000  0.67514816  0.98455783     0.03610
C1895       C  0.68605337  0.68646085  0.93194966     0.38260
C1896       C  0.77753107  0.62915829  0.99981800     0.38250
C1897       C  0.77138999  0.69228152  0.00308528     0.36680
C1898       C  0.68100531  0.62506501  0.94486410     0.36680
N1899       N  0.78773239  0.70591114  0.01785761    -0.38140
N1900       N  0.65885794  0.61331759  0.93861073    -0.38140
N1901       N  0.79668521  0.61771474  0.01289100    -0.37590
N1902       N  0.66909051  0.69766716  0.91598130    -0.37590
C1903       C  0.65535776  0.77299960  0.97608223    -0.04260
C1904       C  0.64151898  0.78348457  0.94967884    -0.01370
C1905       C  0.61015015  0.78710939  0.94854137     0.03620
C1906       C  0.59237776  0.77909322  0.97333516    -0.04260
C1907       C  0.60625358  0.76919956  0.99987774    -0.01360
C1908       C  0.63765140  0.76703845  0.00151379     0.03610
C1909       C  0.65926798  0.78846080  0.92297940     0.38260
C1910       C  0.58823990  0.76008071  0.02522259     0.38250
C1911       C  0.65180864  0.75797382  0.02922091     0.36680
C1912       C  0.59601691  0.79703820  0.92112284     0.36680
N1913       N  0.66316872  0.75082281  0.05130560    -0.38140
N1914       N  0.58477264  0.80494151  0.89923598    -0.38140
N1915       N  0.57412237  0.75232138  0.04543162    -0.37590
N1916       N  0.67342250  0.79224550  0.90164692    -0.37590
C1917       C  0.85127877  0.80037406  0.96044821    -0.04260
C1918       C  0.86687949  0.80326882  0.98775196    -0.01370
C1919       C  0.89833992  0.80180973  0.98816927     0.03620
C1920       C  0.91425768  0.79580440  0.96153179    -0.04260
C1921       C  0.89851154  0.79016920  0.93470178    -0.01360
C1922       C  0.86705158  0.79303000  0.93404279     0.03610
C1923       C  0.85043158  0.80773339  0.01543412     0.38260
C1924       C  0.91470348  0.78208460  0.90768180     0.38250
C1925       C  0.85093843  0.78909687  0.90617432     0.36680
C1926       C  0.91434542  0.80694046  0.01594458     0.36680
N1927       N  0.83803938  0.78592881  0.88394962    -0.38140
N1928       N  0.92700603  0.81126055  0.03811627    -0.38140
N1929       N  0.92751079  0.77538494  0.88611978    -0.37590
N1930       N  0.83724161  0.81088851  0.03753757    -0.37590
C1931       C  0.77664219  0.88225821  0.96573833    -0.04260
C1932       C  0.79293284  0.90054776  0.98590421    -0.01370
C1933       C  0.78830160  0.93170205  0.98655547     0.03620
C1934       C  0.76692060  0.94495911  0.96750925    -0.04260
C1935       C  0.74942316  0.92662681  0.94854983    -0.01360
C1936       C  0.75448762  0.89546568  0.94739924     0.03610
C1937       C  0.81436149  0.88752752  0.00644117     0.38260
C1938       C  0.72710763  0.93987638  0.92911231     0.38250
C1939       C  0.73758731  0.87726902  0.92640639     0.36680
C1940       C  0.80535053  0.95006478  0.00734089     0.36680
N1941       N  0.72395851  0.86276304  0.90979832    -0.38140
N1942       N  0.81900408  0.96468638  0.02382752    -0.38140
N1943       N  0.70926186  0.95042694  0.91366812    -0.37590
N1944       N  0.83171942  0.87773813  0.02288694    -0.37590
C1945       C  0.72898126  0.53785219  0.81089409    -0.04260
C1946       C  0.75456881  0.52534270  0.82477013    -0.01370
C1947       C  0.75884590  0.52865960  0.85599550     0.03620
C1948       C  0.73559645  0.54048804  0.87420897    -0.04260
C1949       C  0.71063136  0.55384156  0.86000458    -0.01360
C1950       C  0.70885035  0.55477853  0.82862174     0.03610
C1951       C  0.77591162  0.50782983  0.80749041     0.38260
C1952       C  0.68586076  0.56595597  0.87711547     0.38250
C1953       C  0.68627261  0.57350016  0.81460879     0.36680
C1954       C  0.78702207  0.51940556  0.86906424     0.36680
N1955       N  0.66836823  0.58847023  0.80345742    -0.38140
N1956       N  0.80977908  0.51247401  0.87924214    -0.38140
N1957       N  0.66507949  0.57488560  0.88975218    -0.37590
N1958       N  0.79299318  0.49381488  0.79380927    -0.37590
C1959       C  0.65123839  0.52090378  0.73346958    -0.04260
C1960       C  0.63869551  0.54584540  0.71860460    -0.01370
C1961       C  0.60739159  0.54863786  0.71566779     0.03620
C1962       C  0.58833567  0.52676156  0.72784309    -0.04260
C1963       C  0.60085823  0.50125592  0.74160476    -0.01360
C1964       C  0.63217646  0.49829613  0.74430792     0.03610
C1965       C  0.65785291  0.56964366  0.70786498     0.38260
C1966       C  0.58147987  0.47790455  0.75285590     0.38250
C1967       C  0.64484402  0.47206541  0.75846682     0.36680
C1968       C  0.59482188  0.57501664  0.70171897     0.36680
N1969       N  0.65501421  0.45118503  0.76979691    -0.38140
N1970       N  0.58505778  0.59621744  0.69065688    -0.38140
N1971       N  0.56601681  0.45928079  0.76180897    -0.37590
N1972       N  0.67312701  0.58861169  0.69931175    -0.37590
C1973       C  0.76330413  0.54616440  0.61804754    -0.04260
C1974       C  0.77214538  0.57108360  0.60107027    -0.01370
C1975       C  0.76883265  0.57069913  0.56972540     0.03620
C1976       C  0.75691386  0.54531670  0.55510233    -0.04260
C1977       C  0.74573443  0.52144846  0.57227461    -0.01360
C1978       C  0.74925699  0.52166701  0.60363648     0.03610
C1979       C  0.78491741  0.59705609  0.61590020     0.38260
C1980       C  0.73151014  0.49615787  0.55762655     0.38250
C1981       C  0.74001080  0.49584590  0.62079505     0.36680
C1982       C  0.77640459  0.59712148  0.55288549     0.36680
N1983       N  0.73265551  0.47526448  0.63449910    -0.38140
N1984       N  0.78197183  0.61899704  0.54047140    -0.38140
N1985       N  0.72002381  0.47604004  0.54600057    -0.37590
N1986       N  0.79520029  0.61769460  0.62774804    -0.37590
C1987       C  0.84414906  0.53090932  0.69255762    -0.04260
C1988       C  0.86313688  0.51838124  0.67040691    -0.01370
C1989       C  0.89413104  0.52328458  0.67153045     0.03620
C1990       C  0.90770181  0.53382515  0.69828184    -0.04260
C1991       C  0.88881104  0.54226756  0.72252879    -0.01360
C1992       C  0.85736961  0.54302939  0.71878373     0.03610
C1993       C  0.85099033  0.49987300  0.64648128     0.38260
C1994       C  0.90131845  0.55133897  0.75111132     0.38250
C1995       C  0.83910794  0.55759970  0.74149031     0.36680
C1996       C  0.91111724  0.51920166  0.64412061     0.36680
N1997       N  0.82475234  0.56935725  0.75968857    -0.38140
N1998       N  0.92411105  0.51685591  0.62179678    -0.38140
N1999       N  0.91102791  0.55821912  0.77414333    -0.37590
N2000       N  0.84134443  0.48501582  0.62752006    -0.37590
C2001       C  0.73487135  0.88445578  0.47667457    -0.04260
C2002       C  0.74880559  0.90163495  0.49920639    -0.01370
C2003       C  0.75379527  0.93251847  0.49468110     0.03620
C2004       C  0.74346882  0.94636366  0.46824149    -0.04260
C2005       C  0.73248931  0.92844827  0.44466447    -0.01360
C2006       C  0.72909249  0.89746786  0.44857148     0.03610
C2007       C  0.75804301  0.88752901  0.52678214     0.38260
C2008       C  0.72617982  0.94143193  0.41577430     0.38250
C2009       C  0.72074791  0.87865857  0.42330533     0.36680
C2010       C  0.76946949  0.94997124  0.51713095     0.36680
N2011       N  0.71436974  0.86356317  0.40316573    -0.38140
N2012       N  0.78230632  0.96380543  0.53490717    -0.38140
N2013       N  0.72159263  0.95080948  0.39218212    -0.37590
N2014       N  0.76561795  0.87618491  0.54870980    -0.37590
C2015       C  0.65279561  0.81120071  0.47009774    -0.04260
C2016       C  0.63363016  0.83299130  0.45720592    -0.01370
C2017       C  0.60233766  0.82925283  0.45742525     0.03620
C2018       C  0.58936677  0.80204676  0.46719617    -0.04260
C2019       C  0.60866633  0.77911428  0.47757487    -0.01360
C2020       C  0.63979821  0.78424842  0.48050146     0.03610
C2021       C  0.64549573  0.85950166  0.44288918     0.38260
C2022       C  0.59680606  0.75013900  0.48577284     0.38250
C2023       C  0.65801642  0.76202000  0.49551687     0.36680
C2024       C  0.58381515  0.85388013  0.44697226     0.36680
N2025       N  0.67240601  0.74417760  0.50747883    -0.38140
N2026       N  0.56931086  0.87367111  0.43874287    -0.38140
N2027       N  0.58765018  0.72679122  0.49194240    -0.37590
N2028       N  0.65360654  0.88122363  0.43158911    -0.37590
C2029       C  0.76948107  0.69115776  0.46176903    -0.04260
C2030       C  0.74369793  0.67740383  0.44961180    -0.01370
C2031       C  0.74003359  0.64598157  0.45125092     0.03620
C2032       C  0.76368836  0.62755438  0.46169751    -0.04260
C2033       C  0.78967207  0.64158319  0.47341845    -0.01360
C2034       C  0.79109878  0.67292462  0.47593734     0.03610
C2035       C  0.72123899  0.69524769  0.43451664     0.38260
C2036       C  0.81531148  0.62422716  0.48333977     0.38250
C2037       C  0.81461099  0.68630615  0.49402590     0.36680
C2038       C  0.71191969  0.63299145  0.44175224     0.36680
N2039       N  0.83330447  0.69684330  0.50851403    -0.38140
N2040       N  0.68911011  0.62304443  0.43470954    -0.38140
N2041       N  0.83589911  0.61063303  0.49118474    -0.37590
N2042       N  0.70326523  0.70940909  0.42246647    -0.37590
C2043       C  0.84497524  0.76977149  0.45118568    -0.04260
C2044       C  0.86297445  0.76863572  0.42533352    -0.01370
C2045       C  0.89434697  0.77055133  0.42789075     0.03620
C2046       C  0.90776847  0.77391087  0.45633068    -0.04260
C2047       C  0.88969923  0.77572680  0.48213383    -0.01360
C2048       C  0.85836789  0.77380873  0.47957743     0.03610
C2049       C  0.84915274  0.76487649  0.39622138     0.38260
C2050       C  0.90337759  0.77758254  0.51148705     0.38250
C2051       C  0.83995020  0.77441977  0.50636174     0.36680
C2052       C  0.91279068  0.76779004  0.40131939     0.36680
N2053       N  0.82522315  0.77481940  0.52767827    -0.38140
N2054       N  0.92713551  0.76520772  0.37989198    -0.38140
N2055       N  0.91400864  0.77863332  0.53505320    -0.37590
N2056       N  0.83804897  0.76193188  0.37301576    -0.37590
C2057       C  0.51508451  0.76711414  0.81215187    -0.04260
C2058       C  0.53643560  0.75270845  0.83048939    -0.01370
C2059       C  0.53412308  0.75442689  0.86200020     0.03620
C2060       C  0.51116112  0.77164337  0.87561803    -0.04260
C2061       C  0.49093334  0.78751763  0.85725453    -0.01360
C2062       C  0.49257730  0.78492819  0.82579207     0.03610
C2063       C  0.56078542  0.73589017  0.81689321     0.38260
C2064       C  0.46709331  0.80520862  0.87055753     0.38250
C2065       C  0.46977600  0.79920644  0.80764195     0.36680
C2066       C  0.55557155  0.73847096  0.88033626     0.36680
N2067       N  0.45158687  0.81060012  0.79322384    -0.38140
N2068       N  0.57262869  0.72564121  0.89492268    -0.38140
N2069       N  0.44794576  0.81945652  0.88074162    -0.37590
N2070       N  0.58011876  0.72238853  0.80601119    -0.37590
C2071       C  0.49575697  0.68989871  0.73448455    -0.04260
C2072       C  0.48192325  0.67145107  0.75589018    -0.01370
C2073       C  0.48747184  0.64057787  0.75572711     0.03620
C2074       C  0.49987890  0.62645308  0.72997576    -0.04260
C2075       C  0.50940633  0.64470495  0.70593315    -0.01360
C2076       C  0.50922802  0.67626351  0.70907840     0.03610
C2077       C  0.46213743  0.68424387  0.77848164     0.38260
C2078       C  0.52102182  0.63139133  0.67858143     0.38250
C2079       C  0.52411471  0.69430228  0.68673947     0.36680
C2080       C  0.48260064  0.62446612  0.78336440     0.36680
N2081       N  0.53605004  0.70856473  0.66884495    -0.38140
N2082       N  0.47968389  0.61213770  0.80586974    -0.38140
N2083       N  0.53004019  0.62100684  0.65653420    -0.37590
N2084       N  0.44627236  0.69439984  0.79637210    -0.37590
C2085       C  0.49697996  0.80078596  0.55619942    -0.04260
C2086       C  0.47435796  0.81797104  0.57027703    -0.01370
C2087       C  0.47384155  0.82114014  0.60167616     0.03620
C2088       C  0.49689479  0.80862443  0.61939271    -0.04260
C2089       C  0.51947168  0.79131762  0.60530633    -0.01360
C2090       C  0.51913569  0.78690223  0.57395944     0.03610
C2091       C  0.45123950  0.83226622  0.55253313     0.38260
C2092       C  0.54396417  0.77921780  0.62276891     0.38250
C2093       C  0.54259757  0.76922707  0.55999160     0.36680
C2094       C  0.44907786  0.83698527  0.61563076     0.36680
N2095       N  0.56141981  0.75498651  0.54919302    -0.38140
N2096       N  0.42905935  0.84964610  0.62622948    -0.38140
N2097       N  0.56354095  0.76957833  0.63664052    -0.37590
N2098       N  0.43288719  0.84380514  0.53843833    -0.37590
C2099       C  0.49740668  0.88461686  0.70094778    -0.04260
C2100       C  0.52396136  0.89915022  0.70982901    -0.01370
C2101       C  0.52435101  0.93055510  0.71318781     0.03620
C2102       C  0.49851730  0.94740769  0.70648494    -0.04260
C2103       C  0.47165122  0.93270255  0.69904417    -0.01360
C2104       C  0.47090793  0.90129763  0.69723707     0.03610
C2105       C  0.55106325  0.88188296  0.71439526     0.38260
C2106       C  0.44491486  0.94986319  0.69241998     0.38250
C2107       C  0.44283480  0.88606615  0.69182937     0.36680
C2108       C  0.55156310  0.94557911  0.72236495     0.36680
N2109       N  0.42027483  0.87400687  0.68813596    -0.38140
N2110       N  0.57326296  0.95749375  0.72985776    -0.38140
N2111       N  0.42352460  0.96328759  0.68675358    -0.37590
N2112       N  0.57265841  0.86804314  0.71799764    -0.37590
loop_ 
_geom_bond_atom_site_label_1 
_geom_bond_atom_site_label_2 
_geom_bond_distance 
_geom_bond_site_symmetry_2 
_ccdc_geom_bond_type 
C1            C2   1.398       .  A
C1            C6   1.408       .  A
C1         C2088   1.497       .  S
C2            C3   1.394       .  A
C2            H7   1.085       .  S
C3            C4   1.397       .  A
C3         C2099   1.480       .  S
C4            C5   1.414       .  A
C4            H8   1.079       .  S
C5            C6   1.419       .  A
C5           C12   1.508       .  S
C6            H9   1.079       .  S
C10          C11   1.402       .  A
C10          C15   1.392       .  A
C10        C2057   1.498       .  S
C11          C12   1.418       .  A
C11          H16   1.079       .  S
C12          C13   1.416       .  A
C13          C14   1.405       .  A
C13          H17   1.079       .  S
C14          C15   1.401       .  A
C14        C2071   1.499       .  S
C15          H18   1.083       .  S
C19          C20   1.411       .  A
C19          C24   1.403       .  A
C19        C2029   1.502       .  S
C20          C21   1.417       .  A
C20          H25   1.081       .  S
C21          C22   1.414       .  A
C21          C30   1.504       .  S
C22          C23   1.394       .  A
C22          H26   1.078       .  S
C23          C24   1.390       .  A
C23        C2043   1.483       .  S
C24          H27   1.084       .  S
C28          C29   1.393       .  A
C28          C33   1.397       .  A
C28        C2001   1.485       .  S
C29          C30   1.412       .  A
C29          H34   1.078       .  S
C30          C31   1.416       .  A
C31          C32   1.414       .  A
C31          H35   1.081       .  S
C32          C33   1.407       .  A
C32        C2015   1.513       .  S
C33          H36   1.082       .  S
C37          C38   1.395       .  A
C37          C42   1.396       .  A
C37        C1973   1.486       .  S
C38          C39   1.404       .  A
C38          H43   1.083       .  S
C39          C40   1.408       .  A
C39        C1987   1.504       .  S
C40          C41   1.414       .  A
C40          H44   1.081       .  S
C41          C42   1.409       .  A
C41          C48   1.495       .  S
C42          H45   1.081       .  S
C46          C47   1.404       .  A
C46          C51   1.405       .  A
C46        C1945   1.500       .  S
C47          C48   1.411       .  A
C47          H52   1.081       .  S
C48          C49   1.412       .  A
C49          C50   1.400       .  A
C49          H53   1.081       .  S
C50          C51   1.397       .  A
C50        C1959   1.492       .  S
C51          H54   1.084       .  S
C55          C56   1.402       .  A
C55          C60   1.396       .  A
C55        C1931   1.494       .  S
C56          C57   1.417       .  A
C56          H61   1.075       .  S
C57          C58   1.421       .  A
C57          C66   1.518       .  S
C58          C59   1.403       .  A
C58          H62   1.077       .  S
C59          C60   1.394       .  A
C59        C1917   1.484       .  S
C60          H63   1.084       .  S
C64          C65   1.406       .  A
C64          C69   1.398       .  A
C64        C1889   1.498       .  S
C65          C66   1.419       .  A
C65          H70   1.076       .  S
C66          C67   1.422       .  A
C67          C68   1.400       .  A
C67          H71   1.076       .  S
C68          C69   1.391       .  A
C68        C1903   1.490       .  S
C69          H72   1.084       .  S
C73          C74   1.400       .  A
C73          C78   1.396       .  A
C73        C1861   1.494       .  S
C74          C75   1.415       .  A
C74          H79   1.078       .  S
C75          C76   1.418       .  A
C75          C84   1.507       .  S
C76          C77   1.404       .  A
C76          H80   1.079       .  S
C77          C78   1.403       .  A
C77        C1875   1.504       .  S
C78          H81   1.083       .  S
C82          C83   1.397       .  A
C82          C87   1.401       .  A
C82        C1833   1.487       .  S
C83          C84   1.413       .  A
C83          H88   1.080       .  S
C84          C85   1.418       .  A
C85          C86   1.407       .  A
C85          H89   1.077       .  S
C86          C87   1.403       .  A
C86        C1847   1.504       .  S
C87          H90   1.084       .  S
C91          C92   1.400       .  A
C91          C96   1.406       .  A
C91        C1805   1.507       .  S
C92          C93   1.399       .  A
C92          H97   1.084       .  S
C93          C94   1.400       .  A
C93        C1822   1.485       .  S
C94          C95   1.416       .  A
C94          H98   1.077       .  S
C95          C96   1.422       .  A
C95         C102   1.518       .  S
C96          H99   1.075   1_455  S
C100        C101   1.412   1_655  A
C100        C105   1.401       .  A
C100       C1780   1.510       .  S
C101        C102   1.423       .  A
C101        H106   1.076       .  S
C102        C103   1.415   1_455  A
C103        C104   1.394       .  A
C103        H107   1.076   1_655  S
C104        C105   1.395       .  A
C104       C1791   1.481       .  S
C105        H108   1.083       .  S
C109        C110   1.399       .  A
C109        C114   1.395       .  A
C109       C1763   1.493       .  S
C110        C111   1.414       .  A
C110        H115   1.080       .  S
C111        C112   1.414       .  A
C111        C120   1.498       .  S
C112        C113   1.406       .  A
C112        H116   1.080       .  S
C113        C114   1.402       .  A
C113       C1749   1.503       .  S
C114        H117   1.082       .  S
C118        C119   1.402       .  A
C118        C123   1.400       .  A
C118       C1735   1.493       .  S
C119        C120   1.412       .  A
C119        H124   1.081       .  S
C120        C121   1.414       .  A
C121        C122   1.399       .  A
C121        H125   1.080       .  S
C122        C123   1.397       .  A
C122       C1721   1.484       .  S
C123        H126   1.084       .  S
O127        V135   1.894       .  S
O127        C137   1.264       .  A
O128        V135   1.893   1_565  S
O128        C138   1.262       .  A
O129        V135   1.884       .  S
O129        C139   1.261       .  A
O130        V135   1.884       .  S
O130        C140   1.261       .  A
O131        V136   1.916       .  S
O131        C140   1.268       .  A
O132        V136   1.916       .  S
O132        C139   1.268       .  A
O133        V136   1.902   1_565  S
O133        C138   1.263       .  A
O134        V136   1.900       .  S
O134        C137   1.265       .  A
V135        V136   2.085       .  T
C137       C1752   1.500       .  S
C138       C2102   1.473       .  S
C139       C1707   1.492       .  S
C140       C1850   1.489       .  S
C141        C142   1.400       .  A
C141        C146   1.396       .  A
C141       C1679   1.492       .  S
C142        C143   1.412   1_655  A
C142        H147   1.081       .  S
C143        C144   1.416       .  A
C143        C152   1.496       .  S
C144        C145   1.404       .  A
C144        H148   1.081       .  S
C145        C146   1.397   1_455  A
C145       C1693   1.496       .  S
C146        H149   1.083       .  S
C150        C151   1.400   1_455  A
C150        C155   1.400       .  A
C150       C1665   1.489   1_455  S
C151        C152   1.410   1_655  A
C151        H156   1.082       .  S
C152        C153   1.415       .  A
C153        C154   1.403       .  A
C153        H157   1.081       .  S
C154        C155   1.396       .  A
C154       C1654   1.493       .  S
C155        H158   1.084       .  S
C159        C160   1.401       .  A
C159        C164   1.393       .  A
C159       C1637   1.482       .  S
C160        C161   1.418       .  A
C160        H165   1.078       .  S
C161        C162   1.418       .  A
C161        C172   1.511       .  S
C162        C163   1.399       .  A
C162        H166   1.077       .  S
C163        C164   1.394       .  A
C163       C1626   1.481       .  S
C164        H167   1.084       .  S
C168        C169   1.394       .  A
C168        C173   1.397       .  A
C168       C1609   1.485       .  S
C169        C170   1.401       .  A
C169        H174   1.084       .  S
C170        C171   1.405       .  A
C170       C1710   1.501       .  S
C171        C172   1.419       .  A
C171        H175   1.078       .  S
C172        C173   1.417       .  A
C173        H176   1.077       .  S
O177        V185   1.877   1_655  S
O177        C187   1.258       .  A
O178        V185   1.887       .  S
O178        C188   1.258       .  A
O179        V185   1.910   1_655  S
O179        C189   1.268       .  A
O180        V185   1.905   1_565  S
O180        C190   1.267       .  A
O181        V186   1.893   1_465  S
O181        C190   1.260       .  A
O182        V186   1.889       .  S
O182        C189   1.260       .  A
O183        V186   1.918   1_455  S
O183        C188   1.269       .  A
O184        V186   1.919       .  S
O184        C187   1.271       .  A
V185        V186   2.086   1_455  T
C187       C1878   1.501       .  S
C188       C1623   1.480       .  S
C189       C1682   1.488       .  S
C190       C1819   1.479       .  S
C191        C192   1.404       .  A
C191        C196   1.403       .  A
C191       C1595   1.498       .  S
C192        C193   1.413       .  A
C192        H197   1.081       .  S
C193        C194   1.414       .  A
C193        C202   1.501       .  S
C194        C195   1.400       .  A
C194        H198   1.080       .  S
C195        C196   1.400       .  A
C195       C1584   1.488       .  S
C196        H199   1.084       .  S
C200        C201   1.403       .  A
C200        C205   1.396       .  A
C200       C1553   1.495       .  S
C201        C202   1.414       .  A
C201        H206   1.080       .  S
C202        C203   1.415       .  A
C203        C204   1.403       .  A
C203        H207   1.081       .  S
C204        C205   1.398       .  A
C204       C1567   1.493       .  S
C205        H208   1.084       .  S
O209        V217   1.906       .  S
O209        C219   1.266       .  A
O210        V217   1.910   1_455  S
O210        C220   1.266       .  A
O211        V217   1.903       .  S
O211        C221   1.265       .  A
O212        V217   1.904       .  S
O212        C222   1.266       .  A
O213        V218   1.895       .  S
O213        C222   1.264       .  A
O214        V218   1.893   1_455  S
O214        C221   1.263   1_455  A
O215        V218   1.894   1_455  S
O215        C220   1.263       .  A
O216        V218   1.894       .  S
O216        C219   1.264       .  A
V217        V218   2.084       .  T
C219       C1990   1.503       .  S
C220       C1581   1.481       .  S
C221       C1794   1.479       .  S
C222       C1668   1.488       .  S
O223        V231   1.908       .  S
O223        C233   1.266       .  A
O224        V231   1.908       .  S
O224        C234   1.267       .  A
O225        V231   1.905       .  S
O225        C235   1.265       .  A
O226        V231   1.902       .  S
O226        C236   1.265       .  A
O227        V232   1.903       .  S
O227        C236   1.266       .  A
O228        V232   1.899       .  S
O228        C235   1.264       .  A
O229        V232   1.885       .  S
O229        C234   1.262       .  A
O230        V232   1.882       .  S
O230        C233   1.261       .  A
V231        V232   2.084       .  T
C233       C1738   1.483       .  S
C234       C2074   1.498       .  S
C235       C1962   1.485       .  S
C236       C1570   1.492       .  S
C237        C238   1.407       .  A
C237        C242   1.396       .  A
C237       C1539   1.500       .  S
C238        C239   1.421       .  A
C238        H243   1.079       .  S
C239        C240   1.415       .  A
C239        C248   1.512       .  S
C240        C241   1.404       .  A
C240        H244   1.080       .  S
C241        C242   1.399       .  A
C241       C1525   1.491       .  S
C242        H245   1.084       .  S
C246        C247   1.397       .  A
C246        C251   1.400       .  A
C246       C1500   1.487       .  S
C247        C248   1.412       .  A
C247        H252   1.079       .  S
C248        C249   1.421       .  A
C249        C250   1.415       .  A
C249        H253   1.080       .  S
C250        C251   1.404       .  A
C250       C1511   1.515       .  S
C251        H254   1.083       .  S
O255        V263   1.904       .  S
O255        C265   1.266       .  A
O256        V263   1.903   1_554  S
O256        C266   1.266       .  A
O257        V263   1.890       .  S
O257        C267   1.263       .  A
O258        V263   1.893       .  S
O258        C268   1.262       .  A
O259        V264   1.909       .  S
O259        C268   1.266       .  A
O260        V264   1.911       .  S
O260        C267   1.268       .  A
O261        V264   1.903   1_554  S
O261        C266   1.264       .  A
O262        V264   1.902       .  S
O262        C265   1.265       .  A
V263        V264   2.082       .  T
C265       C2060   1.493       .  S
C266       C1528   1.486       .  S
C267       C1483   1.503       .  S
C268       C1906   1.481       .  S
C269        C270   1.410       .  A
C269        C274   1.400       .  A
C269       C1469   1.499       .  S
C270        C271   1.419       .  A
C270        H275   1.081       .  S
C271        C272   1.413       .  A
C271        C282   1.503       .  S
C272        C273   1.394       .  A
C272        H276   1.079       .  S
C273        C274   1.391       .  A
C273       C1455   1.478       .  S
C274        H277   1.084       .  S
C278        C279   1.405       .  A
C278        C283   1.410       .  A
C278       C1486   1.504       .  S
C279        C280   1.394       .  A
C279        H284   1.083       .  S
C280        C281   1.398       .  A
C280       C1441   1.491       .  S
C281        C282   1.414       .  A
C281        H285   1.079       .  S
C282        C283   1.414       .  A
C283        H286   1.081       .  S
C287        C288   1.400       .  A
C287        C292   1.402       .  A
C287       C1416   1.495       .  S
C288        C289   1.407   1_455  A
C288        H293   1.082       .  S
C289        C290   1.410       .  A
C289        C300   1.488       .  S
C290        C291   1.402       .  A
C290        H294   1.082       .  S
C291        C292   1.401   1_655  A
C291       C1427   1.498       .  S
C292        H295   1.082       .  S
C296        C297   1.402       .  A
C296        C301   1.399   1_655  A
C296       C1385   1.492   1_655  S
C297        C298   1.397       .  A
C297        H302   1.083       .  S
C298        C299   1.402       .  A
C298       C1399   1.496       .  S
C299        C300   1.411       .  A
C299        H303   1.082       .  S
C300        C301   1.408   1_655  A
C301        H304   1.082       .  S
O305        V313   1.903   1_655  S
O305        C315   1.265       .  A
O306        V313   1.900       .  S
O306        C316   1.264       .  A
O307        V313   1.881       .  S
O307        C317   1.261       .  A
O308        V313   1.880   1_554  S
O308        C318   1.259       .  A
O309        V314   1.911   1_554  S
O309        C318   1.268       .  A
O310        V314   1.915       .  S
O310        C317   1.268       .  A
O311        V314   1.897       .  S
O311        C316   1.262       .  A
O312        V314   1.899   1_655  S
O312        C315   1.262       .  A
V313        V314   2.088       .  T
C315       C1920   1.478       .  S
C316       C1458   1.474       .  S
C317       C1808   1.489       .  S
C318       C1413   1.485       .  S
C319        C320   1.399       .  A
C319        C324   1.392       .  A
C319       C1371   1.496       .  S
C320        C321   1.415       .  A
C320        H325   1.080       .  S
C321        C322   1.419       .  A
C321        C330   1.508       .  S
C322        C323   1.409       .  A
C322        H326   1.079       .  S
C323        C324   1.400       .  A
C323       C1357   1.501       .  S
C324        H327   1.082       .  S
C328        C329   1.396       .  A
C328        C333   1.394       .  A
C328       C1329   1.484       .  S
C329        C330   1.414       .  A
C329        H334   1.080       .  S
C330        C331   1.417       .  A
C331        C332   1.412       .  A
C331        H335   1.077       .  S
C332        C333   1.403       .  A
C332       C1343   1.507       .  S
C333        H336   1.084       .  S
O337        V345   1.905       .  S
O337        C347   1.265       .  A
O338        V345   1.901   1_455  S
O338        C348   1.265       .  A
O339        V345   1.904       .  S
O339        C349   1.266       .  A
O340        V345   1.910       .  S
O340        C350   1.266       .  A
O341        V346   1.890       .  S
O341        C350   1.264       .  A
O342        V346   1.888       .  S
O342        C349   1.262       .  A
O343        V346   1.899   1_455  S
O343        C348   1.264       .  A
O344        V346   1.895       .  S
O344        C347   1.262       .  A
V345        V346   2.085       .  T
C347       C2046   1.477       .  S
C348       C1360   1.497       .  S
C349       C1388   1.492   1_655  S
C350       C1777   1.495       .  S
O351        V359   1.891       .  S
O351        C361   1.262       .  A
O352        V359   1.886       .  S
O352        C362   1.262       .  A
O353        V359   1.898       .  S
O353        C363   1.265       .  A
O354        V359   1.897       .  S
O354        C364   1.265       .  A
O355        V360   1.903       .  S
O355        C364   1.265       .  A
O356        V360   1.907       .  S
O356        C363   1.264       .  A
O357        V360   1.915       .  S
O357        C362   1.269       .  A
O358        V360   1.912       .  S
O358        C361   1.267       .  A
V359        V360   2.082       .  T
C361       C1332   1.481       .  S
C362       C2018   1.506       .  S
C363       C1497   1.482       .  S
C364       C2085   1.488       .  S
C365        C366   1.397       .  A
C365        C370   1.396       .  A
C365       C1304   1.483       .  S
C366        C367   1.414       .  A
C366        H371   1.079       .  S
C367        C368   1.416       .  A
C367        C376   1.506       .  S
C368        C369   1.409       .  A
C368        H372   1.080       .  S
C369        C370   1.403       .  A
C369       C1315   1.502       .  S
C370        H373   1.084       .  S
C374        C375   1.403       .  A
C374        C379   1.397       .  A
C374       C1287   1.488       .  S
C375        C376   1.416       .  A
C375        H380   1.080       .  S
C376        C377   1.415       .  A
C377        C378   1.402       .  A
C377        H381   1.079       .  S
C378        C379   1.398       .  A
C378       C1273   1.492       .  S
C379        H382   1.084       .  S
O383        V391   1.907   1_565  S
O383        C393   1.268       .  A
O384        V391   1.904       .  S
O384        C394   1.266       .  A
O385        V391   1.888       .  S
O385        C395   1.260       .  A
O386        V391   1.885       .  S
O386        C396   1.260       .  A
O387        V392   1.914       .  S
O387        C396   1.269       .  A
O388        V392   1.915       .  S
O388        C395   1.269       .  A
O389        V392   1.906       .  S
O389        C394   1.263       .  A
O390        V392   1.904   1_565  S
O390        C393   1.265       .  A
V391        V392   2.085       .  T
C393       C1514   1.504       .  S
C394       C1301   1.481       .  S
C395       C1259   1.486       .  S
C396       C1245   1.489       .  S
O397        V405   1.899   1_554  S
O397        C407   1.264       .  A
O398        V405   1.896       .  S
O398        C408   1.263       .  A
O399        V405   1.891       .  S
O399        C409   1.263       .  A
O400        V405   1.889       .  S
O400        C410   1.263       .  A
O401        V406   1.910       .  S
O401        C410   1.267       .  A
O402        V406   1.912       .  S
O402        C409   1.267       .  A
O403        V406   1.907       .  S
O403        C408   1.265       .  A
O404        V406   1.908   1_554  S
O404        C407   1.266       .  A
V405        V406   2.082       .  T
C407       C1276   1.489       .  S
C408       C1724   1.481       .  S
C409       C1231   1.485       .  S
C410       C1217   1.503       .  S
C411        C412   1.398       .  A
C411        C416   1.393       .  A
C411       C1203   1.484       .  S
C412        C413   1.418       .  A
C412        H417   1.078       .  S
C413        C414   1.419       .  A
C413        C422   1.516       .  S
C414        C415   1.408       .  A
C414        H418   1.075       .  S
C415        C416   1.400       .  A
C415       C1192   1.502       .  S
C416        H419   1.084       .  S
C420        C421   1.406       .  A
C420        C425   1.399       .  A
C420       C1161   1.494       .  S
C421        C422   1.420       .  A
C421        H426   1.077       .  S
C422        C423   1.417       .  A
C423        C424   1.400       .  A
C423        H427   1.077       .  S
C424        C425   1.395       .  A
C424       C1175   1.490       .  S
C425        H428   1.084       .  S
O429        V437   1.914       .  S
O429        C439   1.269       .  A
O430        V437   1.911   1_455  S
O430        C440   1.267       .  A
O431        V437   1.904       .  S
O431        C441   1.265   1_655  A
O432        V437   1.902       .  S
O432        C442   1.263       .  A
O433        V438   1.903       .  S
O433        C442   1.265       .  A
O434        V438   1.898   1_455  S
O434        C441   1.265       .  A
O435        V438   1.881   1_455  S
O435        C440   1.261       .  A
O436        V438   1.886       .  S
O436        C439   1.261       .  A
V437        V438   2.085       .  T
C439       C1133   1.498       .  S
C440       C1189   1.488       .  S
C441       C1651   1.486       .  S
C442       C1150   1.480       .  S
O443        V451   1.888       .  S
O443        C453   1.261       .  A
O444        V451   1.883   1_565  S
O444        C454   1.261       .  A
O445        V451   1.904       .  S
O445        C455   1.266       .  A
O446        V451   1.902       .  S
O446        C456   1.265       .  A
O447        V452   1.903       .  S
O447        C456   1.264       .  A
O448        V452   1.901       .  S
O448        C455   1.263       .  A
O449        V452   1.914   1_565  S
O449        C454   1.268       .  A
O450        V452   1.915       .  S
O450        C453   1.269       .  A
V451        V452   2.083       .  T
C453       C1164   1.489       .  S
C454       C1346   1.496       .  S
C455       C1122   1.482       .  S
C456       C1612   1.484       .  S
C457        C458   1.409       .  A
C457        C462   1.402       .  A
C457       C1091   1.502       .  S
C458        C459   1.418       .  A
C458        H463   1.079       .  S
C459        C460   1.415       .  A
C459        C468   1.512       .  S
C460        C461   1.398       .  A
C460        H464   1.078       .  S
C461        C462   1.394       .  A
C461       C1105   1.485       .  S
C462        H465   1.084       .  S
C466        C467   1.401       .  A
C466        C471   1.395       .  A
C466       C1077   1.486       .  S
C467        C468   1.418       .  A
C467        H472   1.078       .  S
C468        C469   1.418       .  A
C469        C470   1.405       .  A
C469        H473   1.079       .  S
C470        C471   1.400       .  A
C470       C1234   1.493       .  S
C471        H474   1.084       .  S
C475        C476   1.396       .  A
C475        C480   1.402       .  A
C475       C1049   1.487       .  S
C476        C477   1.397       .  A
C476        H481   1.084       .  S
C477        C478   1.406       .  A
C477       C1063   1.494       .  S
C478        C479   1.417       .  A
C478        H482   1.080       .  S
C479        C480   1.415       .  A
C479        C488   1.507       .  S
C480        H483   1.080       .  S
C484        C485   1.394       .  A
C484        C489   1.403       .  A
C484       C1262   1.486       .  S
C485        C486   1.394       .  A
C485        H490   1.085       .  S
C486        C487   1.402       .  A
C486       C1119   1.484       .  S
C487        C488   1.416       .  A
C487        H491   1.080       .  S
C488        C489   1.418       .  A
C489        H492   1.080       .  S
C493        C494   1.402       .  A
C493        C498   1.398   1_655  A
C493       C1035   1.493       .  S
C494        C495   1.414   1_655  A
C494        H499   1.080       .  S
C495        C496   1.414       .  A
C495        C506   1.503       .  S
C496        C497   1.405       .  A
C496        H500   1.081       .  S
C497        C498   1.400       .  A
C497       C1021   1.498       .  S
C498        H501   1.084       .  S
C502        C503   1.401   1_655  A
C502        C507   1.404       .  A
C502       C1007   1.495       .  S
C503        C504   1.397       .  A
C503        H508   1.084   1_455  S
C504        C505   1.400       .  A
C504       C1147   1.486       .  S
C505        C506   1.414       .  A
C505        H509   1.080       .  S
C506        C507   1.416   1_455  A
C507        H510   1.081       .  S
O511        V519   1.901       .  S
O511        C521   1.265       .  A
O512        V519   1.902   1_455  S
O512        C522   1.266       .  A
O513        V519   1.885   1_565  S
O513        C523   1.261       .  A
O514        V519   1.885       .  S
O514        C524   1.261       .  A
O515        V520   1.911       .  S
O515        C524   1.268       .  A
O516        V520   1.914   1_565  S
O516        C523   1.268       .  A
O517        V520   1.903   1_455  S
O517        C522   1.264       .  A
O518        V520   1.900       .  S
O518        C521   1.262       .  A
V519        V520   2.085       .  T
C521        C993   1.475       .  S
C522       C1066   1.491       .  S
C523       C1430   1.495       .  S
C524       C1038   1.488       .  S
O525        V533   1.907       .  S
O525        C535   1.264       .  A
O526        V533   1.899   1_554  S
O526        C536   1.263       .  A
O527        V533   1.910   1_565  S
O527        C537   1.268       .  A
O528        V533   1.910       .  S
O528        C538   1.267       .  A
O529        V534   1.893       .  S
O529        C538   1.264       .  A
O530        V534   1.888   1_565  S
O530        C537   1.262       .  A
O531        V534   1.894   1_554  S
O531        C536   1.263       .  A
O532        V534   1.901       .  S
O532        C535   1.264       .  A
V533        V534   2.086       .  T
C535       C1640   1.482       .  S
C536       C1052   1.477       .  S
C537       C1472   1.494       .  S
C538       C1094   1.495       .  S
O539        V547   1.900   1_655  S
O539        C549   1.264       .  A
O540        V547   1.900       .  S
O540        C550   1.264       .  A
O541        V547   1.891   1_554  S
O541        C551   1.263       .  A
O542        V547   1.887       .  S
O542        C552   1.262       .  A
O543        V548   1.908   1_655  S
O543        C552   1.267   1_655  A
O544        V548   1.908   1_554  S
O544        C551   1.267       .  A
O545        V548   1.907       .  S
O545        C550   1.264       .  A
O546        V548   1.913   1_655  S
O546        C549   1.266       .  A
V547        V548   2.086       .  T
C549        C982   1.491       .  S
C550       C1108   1.480       .  S
C551       C1024   1.494       .  S
C552       C1696   1.493       .  S
C553        C554   1.413       .  A
C553        C558   1.405       .  A
C553        C968   1.508       .  S
C554        C555   1.420       .  A
C554        H559   1.079       .  S
C555        C556   1.413       .  A
C555        C564   1.509       .  S
C556        C557   1.400       .  A
C556        H560   1.081       .  S
C557        C558   1.398       .  A
C557        C951   1.493       .  S
C558        H561   1.084       .  S
C562        C563   1.403       .  A
C562        C567   1.397       .  A
C562        C923   1.503       .  S
C563        C564   1.418       .  A
C563        H568   1.080       .  S
C564        C565   1.416       .  A
C565        C566   1.409       .  A
C565        H569   1.080       .  S
C566        C567   1.402       .  A
C566        C937   1.503       .  S
C567        H570   1.082       .  S
O571        V579   1.900       .  S
O571        C581   1.261       .  A
O572        V579   1.900   1_455  S
O572        C582   1.263       .  A
O573        V579   1.917       .  S
O573        C583   1.270       .  A
O574        V579   1.919       .  S
O574        C584   1.270       .  A
O575        V580   1.885       .  S
O575        C584   1.260       .  A
O576        V580   1.882       .  S
O576        C583   1.259       .  A
O577        V580   1.904   1_455  S
O577        C582   1.267       .  A
O578        V580   1.904       .  S
O578        C581   1.266       .  A
V579        V580   2.087       .  T
C581        C909   1.477       .  S
C582        C954   1.488       .  S
C583       C1010   1.487       .  S
C584       C1402   1.492       .  S
O585        V593   1.896       .  S
O585        C595   1.264       .  A
O586        V593   1.899   1_554  S
O586        C596   1.265       .  A
O587        V593   1.900       .  S
O587        C597   1.264       .  A
O588        V593   1.897       .  S
O588        C598   1.263       .  A
O589        V594   1.905       .  S
O589        C598   1.265       .  A
O590        V594   1.906       .  S
O590        C597   1.265       .  A
O591        V594   1.905   1_554  S
O591        C596   1.265       .  A
O592        V594   1.901       .  S
O592        C595   1.265       .  A
V593        V594   2.087       .  T
C595       C1556   1.490       .  S
C596        C926   1.492       .  S
C597       C1080   1.481       .  S
C598       C1444   1.480       .  S
O599        V607   1.915       .  S
O599        C609   1.269       .  A
O600        V607   1.923       .  S
O600        C610   1.270       .  A
O601        V607   1.895       .  S
O601        C611   1.263       .  A
O602        V607   1.899       .  S
O602        C612   1.262       .  A
O603        V608   1.909       .  S
O603        C612   1.267       .  A
O604        V608   1.902       .  S
O604        C611   1.266       .  A
O605        V608   1.883       .  S
O605        C610   1.260       .  A
O606        V608   1.882       .  S
O606        C609   1.260       .  A
V607        V608   2.085       .  T
C609       C1598   1.487       .  S
C610        C965   1.496       .  S
C611       C1374   1.492       .  S
C612       C1206   1.482       .  S
O613        V621   1.891       .  S
O613        C623   1.262       .  A
O614        V621   1.882       .  S
O614        C624   1.260       .  A
O615        V621   1.904       .  S
O615        C625   1.266       .  A
O616        V621   1.900       .  S
O616        C626   1.267       .  A
O617        V622   1.903       .  S
O617        C626   1.264       .  A
O618        V622   1.903       .  S
O618        C625   1.265       .  A
O619        V622   1.910       .  S
O619        C624   1.268       .  A
O620        V622   1.915       .  S
O620        C623   1.268       .  A
V621        V622   2.083       .  T
C623       C1178   1.487       .  S
C624        C898   1.496       .  S
C625       C1766   1.489       .  S
C626       C1318   1.494       .  S
O627        V635   1.890       .  S
O627        C637   1.262       .  A
O628        V635   1.891       .  S
O628        C638   1.262       .  A
O629        V635   1.906       .  S
O629        C639   1.266       .  A
O630        V635   1.907       .  S
O630        C640   1.267       .  A
O631        V636   1.906       .  S
O631        C640   1.266       .  A
O632        V636   1.907       .  S
O632        C639   1.264       .  A
O633        V636   1.909       .  S
O633        C638   1.267       .  A
O634        V636   1.912       .  S
O634        C637   1.268       .  A
V635        V636   2.082       .  T
C637        C940   1.500       .  S
C638        C881   1.483       .  S
C639       C1290   1.487       .  S
C640       C1542   1.497       .  S
C641        C642   1.395       .  A
C641        C646   1.402       .  A
C641        C870   1.494       .  S
C642        C643   1.396       .  A
C642        H647   1.085       .  S
C643        C644   1.404       .  A
C643        C884   1.488       .  S
C644        C645   1.419       .  A
C644        H648   1.078       .  S
C645        C646   1.421       .  A
C645        C654   1.517       .  S
C646        H649   1.075       .  S
C650        C651   1.398       .  A
C650        C655   1.409       .  A
C650        C853   1.496       .  S
C651        C652   1.392       .  A
C651        H656   1.084       .  S
C652        C653   1.397       .  A
C652        C912   1.480       .  S
C653        C654   1.416       .  A
C653        H657   1.076       .  S
C654        C655   1.421       .  A
C655        H658   1.078       .  S
O659        V667   1.894       .  S
O659        C669   1.263       .  A
O660        V667   1.896       .  S
O660        C670   1.263       .  A
O661        V667   1.892   1_554  S
O661        C671   1.263       .  A
O662        V667   1.896       .  S
O662        C672   1.265       .  A
O663        V668   1.907       .  S
O663        C672   1.266       .  A
O664        V668   1.909   1_554  S
O664        C671   1.266       .  A
O665        V668   1.907       .  S
O665        C670   1.265       .  A
O666        V668   1.904       .  S
O666        C669   1.266       .  A
V667        V668   2.085       .  T
C669       C1892   1.497       .  S
C670        C839   1.481       .  S
C671        C867   1.482       .  S
C672       C1948   1.498       .  S
C673        C674   1.401       .  A
C673        C678   1.399       .  A
C673        C825   1.487       .  S
C674        C675   1.417       .  A
C674        H679   1.078       .  S
C675        C676   1.422       .  A
C675        C686   1.518       .  S
C676        C677   1.407       .  A
C676        H680   1.074       .  S
C677        C678   1.399       .  A
C677        C979   1.503       .  S
C678        H681   1.084       .  S
C682        C683   1.392       .  A
C682        C687   1.395       .  A
C682        C842   1.482       .  S
C683        C684   1.401       .  A
C683        H688   1.083       .  S
C684        C685   1.414       .  A
C684       C1220   1.514       .  S
C685        C686   1.424       .  A
C685        H689   1.077       .  S
C686        C687   1.416       .  A
C687        H690   1.075       .  S
C691        C692   1.396       .  A
C691        C696   1.406       .  A
C691        C811   1.490       .  S
C692        C693   1.392       .  A
C692        H697   1.085       .  S
C693        C694   1.398       .  A
C693        C996   1.478       .  S
C694        C695   1.415       .  A
C694        H698   1.080       .  S
C695        C696   1.418       .  A
C695        C702   1.508       .  S
C696        H699   1.079       .  S
C700        C701   1.405       .  A
C700        C705   1.398       .  A
C700        C800   1.503       .  S
C701        C702   1.418       .  A
C701        H706   1.079       .  S
C702        C703   1.416       .  A
C703        C704   1.402       .  A
C703        H707   1.079       .  S
C704        C705   1.397       .  A
C704       C1248   1.495       .  S
C705        H708   1.083       .  S
O709        V717   1.905       .  S
O709        C719   1.265       .  A
O710        V717   1.901   1_554  S
O710        C720   1.264       .  A
O711        V717   1.906       .  S
O711        C721   1.265       .  A
O712        V717   1.901   1_565  S
O712        C722   1.265       .  A
O713        V718   1.888   1_565  S
O713        C722   1.262       .  A
O714        V718   1.892       .  S
O714        C721   1.263       .  A
O715        V718   1.897   1_554  S
O715        C720   1.264       .  A
O716        V718   1.895       .  S
O716        C719   1.263       .  A
V717        V718   2.087       .  T
C719       C1864   1.482       .  S
C720        C814   1.482       .  S
C721        C828   1.479       .  S
C722       C1934   1.483       .  S
C723        C724   1.391       .  A
C723        C728   1.402       .  A
C723        C783   1.489       .  S
C724        C725   1.399       .  A
C724        H729   1.084       .  S
C725        C726   1.406       .  A
C725        C895   1.500       .  S
C726        C727   1.419       .  A
C726        H730   1.074       .  S
C727        C728   1.420       .  A
C727        C734   1.516       .  S
C728        H731   1.079       .  S
C732        C733   1.404       .  A
C732        C737   1.396       .  A
C732        C769   1.498       .  S
C733        C734   1.420       .  A
C733        H738   1.076       .  S
C734        C735   1.417       .  A
C735        C736   1.405       .  A
C735        H739   1.078       .  S
C736        C737   1.400       .  A
C736       C1136   1.502       .  S
C737        H740   1.083       .  S
O741        V749   1.890       .  S
O741        C751   1.262       .  A
O742        V749   1.889       .  S
O742        C752   1.263       .  A
O743        V749   1.905       .  S
O743        C753   1.264       .  A
O744        V749   1.903   1_565  S
O744        C754   1.265       .  A
O745        V750   1.905   1_565  S
O745        C754   1.264       .  A
O746        V750   1.905       .  S
O746        C753   1.265       .  A
O747        V750   1.909       .  S
O747        C752   1.266       .  A
O748        V750   1.909       .  S
O748        C751   1.268       .  A
V749        V750   2.085       .  T
C751        C797   1.497       .  S
C752       C1836   1.483       .  S
C753        C786   1.483       .  S
C754       C2004   1.482       .  S
O755        V763   1.903       .  S
O755        C765   1.265       .  A
O756        V763   1.903       .  S
O756        C766   1.266       .  A
O757        V763   1.888       .  S
O757        C767   1.263       .  A
O758        V763   1.894       .  S
O758        C768   1.263       .  A
O759        V764   1.911       .  S
O759        C768   1.268       .  A
O760        V764   1.913       .  S
O760        C767   1.268       .  A
O761        V764   1.904       .  S
O761        C766   1.265       .  A
O762        V764   1.901       .  S
O762        C765   1.264       .  A
V763        V764   2.082       .  T
C765       C1976   1.481       .  S
C766        C856   1.492       .  S
C767       C2032   1.502       .  S
C768        C772   1.488       .  S
C769        C770   1.414       .  A
C769        C774   1.418       .  A
C770        C771   1.412       .  A
C770        C775   1.451       .  S
C771        C772   1.415       .  A
C771        C778   1.452       .  S
C772        C773   1.412       .  A
C773        C774   1.414       .  A
C773        C776   1.452       .  S
C774        C777   1.451       .  S
C775        N782   1.157       .  T
C776        N781   1.157       .  T
C777        N779   1.157       .  T
C778        N780   1.157       .  T
C783        C784   1.414       .  A
C783        C788   1.412       .  A
C784        C785   1.411       .  A
C784        C789   1.452       .  S
C785        C786   1.410       .  A
C785        C792   1.448       .  S
C786        C787   1.412       .  A
C787        C788   1.412       .  A
C787        C790   1.449       .  S
C788        C791   1.451       .  S
C789        N796   1.157       .  T
C790        N795   1.157       .  T
C791        N793   1.157       .  T
C792        N794   1.156       .  T
C797        C798   1.419       .  A
C797        C802   1.417       .  A
C798        C799   1.408       .  A
C798        C803   1.453       .  S
C799        C800   1.415       .  A
C799        C806   1.453   1_545  S
C800        C801   1.419       .  A
C801        C802   1.415       .  A
C801        C804   1.452       .  S
C802        C805   1.452       .  S
C803        N810   1.158   1_545  T
C804        N809   1.158       .  T
C805        N807   1.157       .  T
C806        N808   1.157       .  T
C811        C812   1.413       .  A
C811        C816   1.416       .  A
C812        C813   1.412       .  A
C812        C817   1.451   1_545  S
C813        C814   1.414       .  A
C813        C820   1.451   1_545  S
C814        C815   1.411       .  A
C815        C816   1.409       .  A
C815        C818   1.452       .  S
C816        C819   1.452       .  S
C817        N824   1.157       .  T
C818        N823   1.157       .  T
C819        N821   1.157       .  T
C820        N822   1.157       .  T
C825        C826   1.412       .  A
C825        C830   1.410       .  A
C826        C827   1.413       .  A
C826        C831   1.450   1_556  S
C827        C828   1.413       .  A
C827        C834   1.451   1_556  S
C828        C829   1.411       .  A
C829        C830   1.407       .  A
C829        C832   1.451       .  S
C830        C833   1.449       .  S
C831        N838   1.157       .  T
C832        N837   1.157       .  T
C833        N835   1.157       .  T
C834        N836   1.157       .  T
C839        C840   1.414       .  A
C839        C844   1.412       .  A
C840        C841   1.412       .  A
C840        C845   1.446       .  S
C841        C842   1.406       .  A
C841        C848   1.450       .  S
C842        C843   1.410       .  A
C843        C844   1.406       .  A
C843        C846   1.451   1_556  S
C844        C847   1.451   1_556  S
C845        N852   1.156       .  T
C846        N851   1.157       .  T
C847        N849   1.157       .  T
C848        N850   1.157       .  T
C853        C854   1.416       .  A
C853        C858   1.414       .  A
C854        C855   1.413       .  A
C854        C859   1.451       .  S
C855        C856   1.414       .  A
C855        C862   1.452       .  S
C856        C857   1.416       .  A
C857        C858   1.412       .  A
C857        C860   1.449       .  S
C858        C861   1.452       .  S
C859        N866   1.157       .  T
C860        N865   1.156       .  T
C861        N863   1.157       .  T
C862        N864   1.157       .  T
C867        C868   1.412       .  A
C867        C872   1.412       .  A
C868        C869   1.414       .  A
C868        C873   1.450       .  S
C869        C870   1.416       .  A
C869        C876   1.450       .  S
C870        C871   1.415       .  A
C871        C872   1.408       .  A
C871        C874   1.452       .  S
C872        C875   1.453       .  S
C873        N880   1.157       .  T
C874        N879   1.157       .  T
C875        N877   1.157       .  T
C876        N878   1.157       .  T
C881        C882   1.414       .  A
C881        C886   1.413       .  A
C882        C883   1.414       .  A
C882        C887   1.451       .  S
C883        C884   1.413       .  A
C883        C890   1.450       .  S
C884        C885   1.412       .  A
C885        C886   1.408       .  A
C885        C888   1.452       .  S
C886        C889   1.452       .  S
C887        N894   1.157       .  T
C888        N893   1.157       .  T
C889        N891   1.157       .  T
C890        N892   1.157       .  T
C895        C896   1.416       .  A
C895        C900   1.417       .  A
C896        C897   1.402       .  A
C896        C901   1.455       .  S
C897        C898   1.418       .  A
C897        C904   1.453       .  S
C898        C899   1.418       .  A
C899        C900   1.416       .  A
C899        C902   1.451       .  S
C900        C903   1.450       .  S
C901        N908   1.158       .  T
C902        N907   1.157       .  T
C903        N905   1.157       .  T
C904        N906   1.158       .  T
C909        C910   1.408       .  A
C909        C914   1.410       .  A
C910        C911   1.408       .  A
C910        C915   1.448       .  S
C911        C912   1.411       .  A
C911        C918   1.451       .  S
C912        C913   1.410       .  A
C913        C914   1.410       .  A
C913        C916   1.450       .  S
C914        C917   1.448       .  S
C915        N922   1.157       .  T
C916        N921   1.157       .  T
C917        N919   1.157       .  T
C918        N920   1.157       .  T
C923        C924   1.419       .  A
C923        C928   1.417       .  A
C924        C925   1.414       .  A
C924        C929   1.451       .  S
C925        C926   1.414       .  A
C925        C932   1.452       .  S
C926        C927   1.414       .  A
C927        C928   1.412       .  A
C927        C930   1.452       .  S
C928        C931   1.452       .  S
C929        N936   1.157       .  T
C930        N935   1.157       .  T
C931        N933   1.157       .  T
C932        N934   1.157       .  T
C937        C938   1.417       .  A
C937        C942   1.415       .  A
C938        C939   1.416       .  A
C938        C943   1.449       .  S
C939        C940   1.418       .  A
C939        C946   1.450       .  S
C940        C941   1.421       .  A
C941        C942   1.409       .  A
C941        C944   1.454       .  S
C942        C945   1.454       .  S
C943        N950   1.157       .  T
C944        N949   1.158       .  T
C945        N947   1.157       .  T
C946        N948   1.157       .  T
C951        C952   1.411       .  A
C951        C956   1.413       .  A
C952        C953   1.409       .  A
C952        C957   1.447       .  S
C953        C954   1.413       .  A
C953        C960   1.452       .  S
C954        C955   1.414       .  A
C955        C956   1.412       .  A
C955        C958   1.445       .  S
C956        C959   1.451       .  S
C957        N964   1.156       .  T
C958        N963   1.156       .  T
C959        N961   1.157       .  T
C960        N962   1.157       .  T
C965        C966   1.415       .  A
C965        C970   1.414       .  A
C966        C967   1.420       .  A
C966        C971   1.446       .  S
C967        C968   1.419       .  A
C967        C974   1.449       .  S
C968        C969   1.415       .  A
C969        C970   1.404       .  A
C969        C972   1.447       .  S
C970        C973   1.455       .  S
C971        N978   1.156       .  T
C972        N977   1.155       .  T
C973        N975   1.158       .  T
C974        N976   1.157       .  T
C979        C980   1.418       .  A
C979        C984   1.417       .  A
C980        C981   1.412       .  A
C980        C985   1.449       .  S
C981        C982   1.412       .  A
C981        C988   1.453       .  S
C982        C983   1.412       .  A
C983        C984   1.416       .  A
C983        C986   1.446   1_556  S
C984        C987   1.451   1_556  S
C985        N992   1.156       .  T
C986        N991   1.156       .  T
C987        N989   1.157       .  T
C988        N990   1.157       .  T
C993        C994   1.410       .  A
C993        C998   1.409       .  A
C994        C995   1.410       .  A
C994        C999   1.449       .  S
C995        C996   1.410       .  A
C995       C1002   1.450       .  S
C996        C997   1.410       .  A
C997        C998   1.408       .  A
C997       C1000   1.451   1_545  S
C998       C1001   1.448   1_545  S
C999       N1006   1.157       .  T
C1000      N1005   1.157       .  T
C1001      N1003   1.157       .  T
C1002      N1004   1.157       .  T
C1007      C1008   1.417   1_655  A
C1007      C1012   1.412       .  A
C1008      C1009   1.416       .  A
C1008      C1013   1.451       .  S
C1009      C1010   1.413   1_455  A
C1009      C1016   1.451       .  S
C1010      C1011   1.415       .  A
C1011      C1012   1.407       .  A
C1011      C1014   1.453       .  S
C1012      C1015   1.450       .  S
C1013      N1020   1.157       .  T
C1014      N1019   1.158       .  T
C1015      N1017   1.156       .  T
C1016      N1018   1.157       .  T
C1021      C1022   1.418   1_455  A
C1021      C1026   1.414       .  A
C1022      C1023   1.413       .  A
C1022      C1027   1.451       .  S
C1023      C1024   1.414   1_655  A
C1023      C1030   1.449       .  S
C1024      C1025   1.418       .  A
C1025      C1026   1.409       .  A
C1025      C1028   1.453       .  S
C1026      C1029   1.453       .  S
C1027      N1034   1.157       .  T
C1028      N1033   1.157       .  T
C1029      N1031   1.157       .  T
C1030      N1032   1.157       .  T
C1035      C1036   1.416   1_655  A
C1035      C1040   1.412       .  A
C1036      C1037   1.413       .  A
C1036      C1041   1.451       .  S
C1037      C1038   1.413   1_455  A
C1037      C1044   1.451       .  S
C1038      C1039   1.418       .  A
C1039      C1040   1.409       .  A
C1039      C1042   1.453       .  S
C1040      C1043   1.452       .  S
C1041      N1048   1.157       .  T
C1042      N1047   1.158       .  T
C1043      N1045   1.157       .  T
C1044      N1046   1.157       .  T
C1049      C1050   1.413       .  A
C1049      C1054   1.415       .  A
C1050      C1051   1.409       .  A
C1050      C1055   1.451   1_545  S
C1051      C1052   1.411       .  A
C1051      C1058   1.452   1_545  S
C1052      C1053   1.411       .  A
C1053      C1054   1.410       .  A
C1053      C1056   1.452       .  S
C1054      C1057   1.451       .  S
C1055      N1062   1.157       .  T
C1056      N1061   1.157       .  T
C1057      N1059   1.157       .  T
C1058      N1060   1.157       .  T
C1063      C1064   1.414       .  A
C1063      C1068   1.414       .  A
C1064      C1065   1.412       .  A
C1064      C1069   1.452       .  S
C1065      C1066   1.415       .  A
C1065      C1072   1.452       .  S
C1066      C1067   1.414       .  A
C1067      C1068   1.412       .  A
C1067      C1070   1.448       .  S
C1068      C1071   1.452       .  S
C1069      N1076   1.157       .  T
C1070      N1075   1.156   1_545  T
C1071      N1073   1.157   1_545  T
C1072      N1074   1.157       .  T
C1077      C1078   1.411       .  A
C1077      C1082   1.411       .  A
C1078      C1079   1.411       .  A
C1078      C1083   1.451       .  S
C1079      C1080   1.413       .  A
C1079      C1086   1.450       .  S
C1080      C1081   1.411       .  A
C1081      C1082   1.412       .  A
C1081      C1084   1.450   1_556  S
C1082      C1085   1.450   1_556  S
C1083      N1090   1.157       .  T
C1084      N1089   1.157       .  T
C1085      N1087   1.157       .  T
C1086      N1088   1.157       .  T
C1091      C1092   1.416       .  A
C1091      C1096   1.419       .  A
C1092      C1093   1.410       .  A
C1092      C1097   1.453   1_556  S
C1093      C1094   1.416       .  A
C1093      C1100   1.453   1_556  S
C1094      C1095   1.414       .  A
C1095      C1096   1.415       .  A
C1095      C1098   1.450       .  S
C1096      C1099   1.451       .  S
C1097      N1104   1.157       .  T
C1098      N1103   1.157       .  T
C1099      N1101   1.157       .  T
C1100      N1102   1.157       .  T
C1105      C1106   1.409       .  A
C1105      C1110   1.413       .  A
C1106      C1107   1.411       .  A
C1106      C1111   1.450       .  S
C1107      C1108   1.411       .  A
C1107      C1114   1.447       .  S
C1108      C1109   1.410       .  A
C1109      C1110   1.410       .  A
C1109      C1112   1.450   1_556  S
C1110      C1113   1.451   1_556  S
C1111      N1118   1.157       .  T
C1112      N1117   1.157       .  T
C1113      N1115   1.157       .  T
C1114      N1116   1.156       .  T
C1119      C1120   1.410       .  A
C1119      C1124   1.412       .  A
C1120      C1121   1.409       .  A
C1120      C1125   1.452   1_545  S
C1121      C1122   1.411       .  A
C1121      C1128   1.447   1_545  S
C1122      C1123   1.413       .  A
C1123      C1124   1.412       .  A
C1123      C1126   1.451       .  S
C1124      C1127   1.450       .  S
C1125      N1132   1.157       .  T
C1126      N1131   1.157       .  T
C1127      N1129   1.157       .  T
C1128      N1130   1.156       .  T
C1133      C1134   1.421       .  A
C1133      C1138   1.417       .  A
C1134      C1135   1.408       .  A
C1134      C1139   1.454       .  S
C1135      C1136   1.415       .  A
C1135      C1142   1.454       .  S
C1136      C1137   1.418       .  A
C1137      C1138   1.415       .  A
C1137      C1140   1.451       .  S
C1138      C1141   1.450       .  S
C1139      N1146   1.158       .  T
C1140      N1145   1.158       .  T
C1141      N1143   1.157       .  T
C1142      N1144   1.158       .  T
C1147      C1148   1.412   1_455  A
C1147      C1152   1.411       .  A
C1148      C1149   1.409       .  A
C1148      C1153   1.450       .  S
C1149      C1150   1.409       .  A
C1149      C1156   1.448       .  S
C1150      C1151   1.413   1_655  A
C1151      C1152   1.413       .  A
C1151      C1154   1.450       .  S
C1152      C1155   1.450       .  S
C1153      N1160   1.157       .  T
C1154      N1159   1.157       .  T
C1155      N1157   1.157       .  T
C1156      N1158   1.156       .  T
C1161      C1162   1.413       .  A
C1161      C1166   1.415       .  A
C1162      C1163   1.410       .  A
C1162      C1167   1.452       .  S
C1163      C1164   1.416       .  A
C1163      C1170   1.452       .  S
C1164      C1165   1.413       .  A
C1165      C1166   1.414       .  A
C1165      C1168   1.451       .  S
C1166      C1169   1.450       .  S
C1167      N1174   1.157       .  T
C1168      N1173   1.157       .  T
C1169      N1171   1.157       .  T
C1170      N1172   1.157       .  T
C1175      C1176   1.413       .  A
C1175      C1180   1.411       .  A
C1176      C1177   1.411       .  A
C1176      C1181   1.452       .  S
C1177      C1178   1.412       .  A
C1177      C1184   1.446       .  S
C1178      C1179   1.415       .  A
C1179      C1180   1.412       .  A
C1179      C1182   1.452       .  S
C1180      C1183   1.451       .  S
C1181      N1188   1.157       .  T
C1182      N1187   1.157       .  T
C1183      N1185   1.157       .  T
C1184      N1186   1.155       .  T
C1189      C1190   1.414       .  A
C1189      C1194   1.413       .  A
C1190      C1191   1.407       .  A
C1190      C1195   1.455       .  S
C1191      C1192   1.419       .  A
C1191      C1198   1.452       .  S
C1192      C1193   1.419       .  A
C1193      C1194   1.415       .  A
C1193      C1196   1.451       .  S
C1194      C1197   1.451       .  S
C1195      N1202   1.158       .  T
C1196      N1201   1.157       .  T
C1197      N1199   1.157       .  T
C1198      N1200   1.157       .  T
C1203      C1204   1.410       .  A
C1203      C1208   1.409       .  A
C1204      C1205   1.409       .  A
C1204      C1209   1.451       .  S
C1205      C1206   1.410       .  A
C1205      C1212   1.447       .  S
C1206      C1207   1.414       .  A
C1207      C1208   1.412       .  A
C1207      C1210   1.450       .  S
C1208      C1211   1.450       .  S
C1209      N1216   1.157       .  T
C1210      N1215   1.157       .  T
C1211      N1213   1.157       .  T
C1212      N1214   1.156       .  T
C1217      C1218   1.419       .  A
C1217      C1222   1.417       .  A
C1218      C1219   1.419       .  A
C1218      C1223   1.451       .  S
C1219      C1220   1.422       .  A
C1219      C1226   1.451       .  S
C1220      C1221   1.421       .  A
C1221      C1222   1.406       .  A
C1221      C1224   1.452       .  S
C1222      C1225   1.454       .  S
C1223      N1230   1.158       .  T
C1224      N1229   1.157   1_556  T
C1225      N1227   1.158       .  T
C1226      N1228   1.158       .  T
C1231      C1232   1.413       .  A
C1231      C1236   1.412       .  A
C1232      C1233   1.415       .  A
C1232      C1237   1.450       .  S
C1233      C1234   1.415       .  A
C1233      C1240   1.450       .  S
C1234      C1235   1.414       .  A
C1235      C1236   1.408       .  A
C1235      C1238   1.451   1_556  S
C1236      C1239   1.452   1_556  S
C1237      N1244   1.157       .  T
C1238      N1243   1.157       .  T
C1239      N1241   1.157       .  T
C1240      N1242   1.157       .  T
C1245      C1246   1.418       .  A
C1245      C1250   1.413       .  A
C1246      C1247   1.407       .  A
C1246      C1251   1.453       .  S
C1247      C1248   1.413       .  A
C1247      C1254   1.453       .  S
C1248      C1249   1.418       .  A
C1249      C1250   1.414       .  A
C1249      C1252   1.451       .  S
C1250      C1253   1.451   1_545  S
C1251      N1258   1.158       .  T
C1252      N1257   1.157   1_545  T
C1253      N1255   1.157       .  T
C1254      N1256   1.157       .  T
C1259      C1260   1.412       .  A
C1259      C1264   1.417       .  A
C1260      C1261   1.412       .  A
C1260      C1265   1.447   1_545  S
C1261      C1262   1.412       .  A
C1261      C1268   1.452   1_545  S
C1262      C1263   1.410       .  A
C1263      C1264   1.409       .  A
C1263      C1266   1.452       .  S
C1264      C1267   1.452       .  S
C1265      N1272   1.156       .  T
C1266      N1271   1.157       .  T
C1267      N1269   1.158       .  T
C1268      N1270   1.157       .  T
C1273      C1274   1.411       .  A
C1273      C1278   1.416       .  A
C1274      C1275   1.409       .  A
C1274      C1279   1.453       .  S
C1275      C1276   1.414       .  A
C1275      C1282   1.447       .  S
C1276      C1277   1.414       .  A
C1277      C1278   1.414       .  A
C1277      C1280   1.451       .  S
C1278      C1281   1.451       .  S
C1279      N1286   1.157       .  T
C1280      N1285   1.157       .  T
C1281      N1283   1.157       .  T
C1282      N1284   1.155       .  T
C1287      C1288   1.414       .  A
C1287      C1292   1.410       .  A
C1288      C1289   1.414       .  A
C1288      C1293   1.450       .  S
C1289      C1290   1.413       .  A
C1289      C1296   1.450       .  S
C1290      C1291   1.411       .  A
C1291      C1292   1.409       .  A
C1291      C1294   1.445       .  S
C1292      C1295   1.452       .  S
C1293      N1300   1.157       .  T
C1294      N1299   1.155       .  T
C1295      N1297   1.157       .  T
C1296      N1298   1.157       .  T
C1301      C1302   1.408       .  A
C1301      C1306   1.411       .  A
C1302      C1303   1.407       .  A
C1302      C1307   1.447       .  S
C1303      C1304   1.411       .  A
C1303      C1310   1.452       .  S
C1304      C1305   1.410       .  A
C1305      C1306   1.413       .  A
C1305      C1308   1.449       .  S
C1306      C1309   1.448       .  S
C1307      N1314   1.157       .  T
C1308      N1313   1.157       .  T
C1309      N1311   1.157       .  T
C1310      N1312   1.157       .  T
C1315      C1316   1.417       .  A
C1315      C1320   1.418       .  A
C1316      C1317   1.411       .  A
C1316      C1321   1.452       .  S
C1317      C1318   1.415       .  A
C1317      C1324   1.453       .  S
C1318      C1319   1.414       .  A
C1319      C1320   1.413       .  A
C1319      C1322   1.449       .  S
C1320      C1323   1.451       .  S
C1321      N1328   1.157       .  T
C1322      N1327   1.157       .  T
C1323      N1325   1.157       .  T
C1324      N1326   1.157       .  T
C1329      C1330   1.409       .  A
C1329      C1334   1.410       .  A
C1330      C1331   1.407       .  A
C1330      C1335   1.451       .  S
C1331      C1332   1.413       .  A
C1331      C1338   1.450       .  S
C1332      C1333   1.414       .  A
C1333      C1334   1.413       .  A
C1333      C1336   1.450       .  S
C1334      C1337   1.450       .  S
C1335      N1342   1.157       .  T
C1336      N1341   1.157       .  T
C1337      N1339   1.157       .  T
C1338      N1340   1.157       .  T
C1343      C1344   1.417       .  A
C1343      C1348   1.420       .  A
C1344      C1345   1.413       .  A
C1344      C1349   1.448       .  S
C1345      C1346   1.415       .  A
C1345      C1352   1.449       .  S
C1346      C1347   1.418       .  A
C1347      C1348   1.407       .  A
C1347      C1350   1.454       .  S
C1348      C1351   1.452       .  S
C1349      N1356   1.157       .  T
C1350      N1355   1.158       .  T
C1351      N1353   1.157       .  T
C1352      N1354   1.158       .  T
C1357      C1358   1.412       .  A
C1357      C1362   1.416       .  A
C1358      C1359   1.405       .  A
C1358      C1363   1.454       .  S
C1359      C1360   1.416       .  A
C1359      C1366   1.447       .  S
C1360      C1361   1.418       .  A
C1361      C1362   1.416       .  A
C1361      C1364   1.452       .  S
C1362      C1365   1.447       .  S
C1363      N1370   1.157       .  T
C1364      N1369   1.157       .  T
C1365      N1367   1.156       .  T
C1366      N1368   1.156       .  T
C1371      C1372   1.416       .  A
C1371      C1376   1.416       .  A
C1372      C1373   1.411       .  A
C1372      C1377   1.452       .  S
C1373      C1374   1.416       .  A
C1373      C1380   1.452       .  S
C1374      C1375   1.416       .  A
C1375      C1376   1.410       .  A
C1375      C1378   1.450       .  S
C1376      C1379   1.453       .  S
C1377      N1384   1.157       .  T
C1378      N1383   1.157       .  T
C1379      N1381   1.158       .  T
C1380      N1382   1.157       .  T
C1385      C1386   1.417   1_455  A
C1385      C1390   1.409       .  A
C1386      C1387   1.414       .  A
C1386      C1391   1.451       .  S
C1387      C1388   1.418   1_655  A
C1387      C1394   1.451       .  S
C1388      C1389   1.418       .  A
C1389      C1390   1.401       .  A
C1389      C1392   1.447       .  S
C1390      C1393   1.455       .  S
C1391      N1398   1.157       .  T
C1392      N1397   1.155       .  T
C1393      N1395   1.157       .  T
C1394      N1396   1.157       .  T
C1399      C1400   1.413       .  A
C1399      C1404   1.417   1_655  A
C1400      C1401   1.409       .  A
C1400      C1405   1.452       .  S
C1401      C1402   1.419       .  A
C1401      C1408   1.453       .  S
C1402      C1403   1.411   1_655  A
C1403      C1404   1.412       .  A
C1403      C1406   1.445       .  S
C1404      C1407   1.452       .  S
C1405      N1412   1.157       .  T
C1406      N1411   1.155       .  T
C1407      N1409   1.157       .  T
C1408      N1410   1.158       .  T
C1413      C1414   1.411   1_455  A
C1413      C1418   1.418       .  A
C1414      C1415   1.412       .  A
C1414      C1419   1.451       .  S
C1415      C1416   1.420   1_655  A
C1415      C1422   1.451       .  S
C1416      C1417   1.413       .  A
C1417      C1418   1.406       .  A
C1417      C1420   1.453       .  S
C1418      C1421   1.454       .  S
C1419      N1426   1.157       .  T
C1420      N1425   1.157       .  T
C1421      N1423   1.158       .  T
C1422      N1424   1.157       .  T
C1427      C1428   1.418   1_655  A
C1427      C1432   1.413       .  A
C1428      C1429   1.414       .  A
C1428      C1433   1.451       .  S
C1429      C1430   1.414   1_455  A
C1429      C1436   1.449       .  S
C1430      C1431   1.420       .  A
C1431      C1432   1.408       .  A
C1431      C1434   1.454       .  S
C1432      C1435   1.453       .  S
C1433      N1440   1.157       .  T
C1434      N1439   1.158       .  T
C1435      N1437   1.157       .  T
C1436      N1438   1.157       .  T
C1441      C1442   1.412       .  A
C1441      C1446   1.417       .  A
C1442      C1443   1.412       .  A
C1442      C1447   1.450       .  S
C1443      C1444   1.412       .  A
C1443      C1450   1.451       .  S
C1444      C1445   1.410       .  A
C1445      C1446   1.411       .  A
C1445      C1448   1.452   1_556  S
C1446      C1449   1.452   1_556  S
C1447      N1454   1.157       .  T
C1448      N1453   1.157       .  T
C1449      N1451   1.157       .  T
C1450      N1452   1.157       .  T
C1455      C1456   1.407       .  A
C1455      C1460   1.412       .  A
C1456      C1457   1.410       .  A
C1456      C1461   1.450   1_556  S
C1457      C1458   1.413       .  A
C1457      C1464   1.448   1_556  S
C1458      C1459   1.408       .  A
C1459      C1460   1.407       .  A
C1459      C1462   1.450       .  S
C1460      C1463   1.451       .  S
C1461      N1468   1.157       .  T
C1462      N1467   1.157       .  T
C1463      N1465   1.157       .  T
C1464      N1466   1.157       .  T
C1469      C1470   1.416       .  A
C1469      C1474   1.415       .  A
C1470      C1471   1.407       .  A
C1470      C1475   1.453       .  S
C1471      C1472   1.416       .  A
C1471      C1478   1.454       .  S
C1472      C1473   1.418       .  A
C1473      C1474   1.416       .  A
C1473      C1476   1.451       .  S
C1474      C1477   1.451       .  S
C1475      N1482   1.157       .  T
C1476      N1481   1.157   1_556  T
C1477      N1479   1.157   1_556  T
C1478      N1480   1.158       .  T
C1483      C1484   1.420       .  A
C1483      C1488   1.422       .  A
C1484      C1485   1.416       .  A
C1484      C1489   1.450       .  S
C1485      C1486   1.418       .  A
C1485      C1492   1.451       .  S
C1486      C1487   1.416       .  A
C1487      C1488   1.407       .  A
C1487      C1490   1.455       .  S
C1488      C1491   1.453       .  S
C1489      N1496   1.157       .  T
C1490      N1495   1.158   1_556  T
C1491      N1493   1.158       .  T
C1492      N1494   1.157       .  T
C1497      C1498   1.414       .  A
C1497      C1502   1.410       .  A
C1498      C1499   1.415       .  A
C1498      C1503   1.449       .  S
C1499      C1500   1.412       .  A
C1499      C1506   1.449       .  S
C1500      C1501   1.410       .  A
C1501      C1502   1.405       .  A
C1501      C1504   1.451       .  S
C1502      C1505   1.448       .  S
C1503      N1510   1.157       .  T
C1504      N1509   1.157       .  T
C1505      N1507   1.156       .  T
C1506      N1508   1.157       .  T
C1511      C1512   1.420       .  A
C1511      C1516   1.423       .  A
C1512      C1513   1.417       .  A
C1512      C1517   1.452       .  S
C1513      C1514   1.418       .  A
C1513      C1520   1.450       .  S
C1514      C1515   1.415       .  A
C1515      C1516   1.415       .  A
C1515      C1518   1.454       .  S
C1516      C1519   1.450       .  S
C1517      N1524   1.158       .  T
C1518      N1523   1.158       .  T
C1519      N1521   1.157       .  T
C1520      N1522   1.158       .  T
C1525      C1526   1.412       .  A
C1525      C1530   1.414       .  A
C1526      C1527   1.408       .  A
C1526      C1531   1.453       .  S
C1527      C1528   1.412       .  A
C1527      C1534   1.447       .  S
C1528      C1529   1.414       .  A
C1529      C1530   1.414       .  A
C1529      C1532   1.451       .  S
C1530      C1533   1.450       .  S
C1531      N1538   1.157       .  T
C1532      N1537   1.157       .  T
C1533      N1535   1.157       .  T
C1534      N1536   1.155       .  T
C1539      C1540   1.415       .  A
C1539      C1544   1.415       .  A
C1540      C1541   1.414       .  A
C1540      C1545   1.452       .  S
C1541      C1542   1.415       .  A
C1541      C1548   1.449       .  S
C1542      C1543   1.417       .  A
C1543      C1544   1.415       .  A
C1543      C1546   1.451       .  S
C1544      C1547   1.451       .  S
C1545      N1552   1.157       .  T
C1546      N1551   1.157       .  T
C1547      N1549   1.157       .  T
C1548      N1550   1.156       .  T
C1553      C1554   1.415       .  A
C1553      C1558   1.416       .  A
C1554      C1555   1.410       .  A
C1554      C1559   1.452       .  S
C1555      C1556   1.416       .  A
C1555      C1562   1.452       .  S
C1556      C1557   1.416       .  A
C1557      C1558   1.412       .  A
C1557      C1560   1.452       .  S
C1558      C1561   1.452       .  S
C1559      N1566   1.157       .  T
C1560      N1565   1.157       .  T
C1561      N1563   1.158       .  T
C1562      N1564   1.157       .  T
C1567      C1568   1.411       .  A
C1567      C1572   1.414       .  A
C1568      C1569   1.407       .  A
C1568      C1573   1.454       .  S
C1569      C1570   1.415       .  A
C1569      C1576   1.445       .  S
C1570      C1571   1.417       .  A
C1571      C1572   1.414       .  A
C1571      C1574   1.451       .  S
C1572      C1575   1.451       .  S
C1573      N1580   1.157       .  T
C1574      N1579   1.157       .  T
C1575      N1577   1.157       .  T
C1576      N1578   1.155       .  T
C1581      C1582   1.411       .  A
C1581      C1586   1.413       .  A
C1582      C1583   1.407       .  A
C1582      C1587   1.451       .  S
C1583      C1584   1.411       .  A
C1583      C1590   1.450       .  S
C1584      C1585   1.412       .  A
C1585      C1586   1.415       .  A
C1585      C1588   1.449       .  S
C1586      C1589   1.449       .  S
C1587      N1594   1.157       .  T
C1588      N1593   1.157       .  T
C1589      N1591   1.157       .  T
C1590      N1592   1.157       .  T
C1595      C1596   1.418       .  A
C1595      C1600   1.414       .  A
C1596      C1597   1.415       .  A
C1596      C1601   1.451       .  S
C1597      C1598   1.412       .  A
C1597      C1604   1.451       .  S
C1598      C1599   1.415       .  A
C1599      C1600   1.408       .  A
C1599      C1602   1.454       .  S
C1600      C1603   1.450       .  S
C1601      N1608   1.157       .  T
C1602      N1607   1.158       .  T
C1603      N1605   1.156       .  T
C1604      N1606   1.157       .  T
C1609      C1610   1.411       .  A
C1609      C1614   1.407       .  A
C1610      C1611   1.409       .  A
C1610      C1615   1.449       .  S
C1611      C1612   1.411       .  A
C1611      C1618   1.451       .  S
C1612      C1613   1.415       .  A
C1613      C1614   1.412       .  A
C1613      C1616   1.445   1_545  S
C1614      C1617   1.451   1_545  S
C1615      N1622   1.157       .  T
C1616      N1621   1.155       .  T
C1617      N1619   1.157       .  T
C1618      N1620   1.157       .  T
C1623      C1624   1.412       .  A
C1623      C1628   1.413       .  A
C1624      C1625   1.408       .  A
C1624      C1629   1.449   1_545  S
C1625      C1626   1.410       .  A
C1625      C1632   1.452   1_545  S
C1626      C1627   1.408       .  A
C1627      C1628   1.412       .  A
C1627      C1630   1.451       .  S
C1628      C1631   1.448       .  S
C1629      N1636   1.157       .  T
C1630      N1635   1.157       .  T
C1631      N1633   1.156       .  T
C1632      N1634   1.157       .  T
C1637      C1638   1.410       .  A
C1637      C1642   1.409       .  A
C1638      C1639   1.411       .  A
C1638      C1643   1.451       .  S
C1639      C1640   1.411       .  A
C1639      C1646   1.447       .  S
C1640      C1641   1.412       .  A
C1641      C1642   1.409       .  A
C1641      C1644   1.447   1_545  S
C1642      C1645   1.451   1_545  S
C1643      N1650   1.157       .  T
C1644      N1649   1.156       .  T
C1645      N1647   1.157       .  T
C1646      N1648   1.156       .  T
C1651      C1652   1.412   1_455  A
C1651      C1656   1.414       .  A
C1652      C1653   1.412       .  A
C1652      C1657   1.449       .  S
C1653      C1654   1.416   1_655  A
C1653      C1660   1.452       .  S
C1654      C1655   1.414       .  A
C1655      C1656   1.411       .  A
C1655      C1658   1.451       .  S
C1656      C1659   1.452       .  S
C1657      N1664   1.156       .  T
C1658      N1663   1.157       .  T
C1659      N1661   1.157       .  T
C1660      N1662   1.157       .  T
C1665      C1666   1.410       .  A
C1665      C1670   1.415   1_655  A
C1666      C1667   1.405       .  A
C1666      C1671   1.455       .  S
C1667      C1668   1.415       .  A
C1667      C1674   1.446       .  S
C1668      C1669   1.416   1_655  A
C1669      C1670   1.413       .  A
C1669      C1672   1.451       .  S
C1670      C1673   1.451       .  S
C1671      N1678   1.157       .  T
C1672      N1677   1.157       .  T
C1673      N1675   1.157       .  T
C1674      N1676   1.155       .  T
C1679      C1680   1.412       .  A
C1679      C1684   1.416   1_655  A
C1680      C1681   1.406       .  A
C1680      C1685   1.454       .  S
C1681      C1682   1.413       .  A
C1681      C1688   1.445       .  S
C1682      C1683   1.417   1_655  A
C1683      C1684   1.412       .  A
C1683      C1686   1.452       .  S
C1684      C1687   1.451       .  S
C1685      N1692   1.157       .  T
C1686      N1691   1.158       .  T
C1687      N1689   1.157       .  T
C1688      N1690   1.155       .  T
C1693      C1694   1.414       .  A
C1693      C1698   1.416   1_455  A
C1694      C1695   1.406       .  A
C1694      C1699   1.454       .  S
C1695      C1696   1.419       .  A
C1695      C1702   1.454       .  S
C1696      C1697   1.416   1_455  A
C1697      C1698   1.415       .  A
C1697      C1700   1.451       .  S
C1698      C1701   1.451       .  S
C1699      N1706   1.157       .  T
C1700      N1705   1.157       .  T
C1701      N1703   1.157       .  T
C1702      N1704   1.158       .  T
C1707      C1708   1.414       .  A
C1707      C1712   1.414       .  A
C1708      C1709   1.403       .  A
C1708      C1713   1.448       .  S
C1709      C1710   1.413       .  A
C1709      C1716   1.452       .  S
C1710      C1711   1.421       .  A
C1711      C1712   1.419       .  A
C1711      C1714   1.451       .  S
C1712      C1715   1.450       .  S
C1713      N1720   1.155       .  T
C1714      N1719   1.157   1_545  T
C1715      N1717   1.157   1_545  T
C1716      N1718   1.156       .  T
C1721      C1722   1.410       .  A
C1721      C1726   1.410       .  A
C1722      C1723   1.413       .  A
C1722      C1727   1.450       .  S
C1723      C1724   1.414       .  A
C1723      C1730   1.449       .  S
C1724      C1725   1.411       .  A
C1725      C1726   1.407       .  A
C1725      C1728   1.450       .  S
C1726      C1729   1.450       .  S
C1727      N1734   1.157       .  T
C1728      N1733   1.157       .  T
C1729      N1731   1.157       .  T
C1730      N1732   1.156       .  T
C1735      C1736   1.414       .  A
C1735      C1740   1.418       .  A
C1736      C1737   1.406       .  A
C1736      C1741   1.450       .  S
C1737      C1738   1.413       .  A
C1737      C1744   1.454       .  S
C1738      C1739   1.412       .  A
C1739      C1740   1.413       .  A
C1739      C1742   1.451       .  S
C1740      C1743   1.451       .  S
C1741      N1748   1.157       .  T
C1742      N1747   1.157       .  T
C1743      N1745   1.157       .  T
C1744      N1746   1.157       .  T
C1749      C1750   1.414       .  A
C1749      C1754   1.419       .  A
C1750      C1751   1.403       .  A
C1750      C1755   1.454       .  S
C1751      C1752   1.418       .  A
C1751      C1758   1.450       .  S
C1752      C1753   1.421       .  A
C1753      C1754   1.416       .  A
C1753      C1756   1.451       .  S
C1754      C1757   1.451       .  S
C1755      N1762   1.157       .  T
C1756      N1761   1.157       .  T
C1757      N1759   1.158       .  T
C1758      N1760   1.158       .  T
C1763      C1764   1.417       .  A
C1763      C1768   1.411       .  A
C1764      C1765   1.414       .  A
C1764      C1769   1.451       .  S
C1765      C1766   1.414       .  A
C1765      C1772   1.451       .  S
C1766      C1767   1.413       .  A
C1767      C1768   1.408       .  A
C1767      C1770   1.445       .  S
C1768      C1771   1.453       .  S
C1769      N1776   1.157       .  T
C1770      N1775   1.155       .  T
C1771      N1773   1.157       .  T
C1772      N1774   1.157       .  T
C1777      C1778   1.414       .  A
C1777      C1782   1.414   1_655  A
C1778      C1779   1.418       .  A
C1778      C1783   1.450       .  S
C1779      C1780   1.421       .  A
C1779      C1786   1.451       .  S
C1780      C1781   1.422   1_655  A
C1781      C1782   1.409       .  A
C1781      C1784   1.450       .  S
C1782      C1785   1.456       .  S
C1783      N1790   1.157       .  T
C1784      N1789   1.156       .  T
C1785      N1787   1.158       .  T
C1786      N1788   1.157       .  T
C1791      C1792   1.408       .  A
C1791      C1796   1.408   1_655  A
C1792      C1793   1.412       .  A
C1792      C1797   1.450       .  S
C1793      C1794   1.415       .  A
C1793      C1800   1.448       .  S
C1794      C1795   1.412   1_655  A
C1795      C1796   1.404       .  A
C1795      C1798   1.451       .  S
C1796      C1799   1.450       .  S
C1797      N1804   1.157       .  T
C1798      N1803   1.157       .  T
C1799      N1801   1.157       .  T
C1800      N1802   1.156       .  T
C1805      C1806   1.422       .  A
C1805      C1810   1.419   1_455  A
C1806      C1807   1.417       .  A
C1806      C1811   1.451       .  S
C1807      C1808   1.411       .  A
C1807      C1814   1.450       .  S
C1808      C1809   1.413   1_455  A
C1809      C1810   1.408       .  A
C1809      C1812   1.456       .  S
C1810      C1813   1.449       .  S
C1811      N1818   1.157       .  T
C1812      N1817   1.158       .  T
C1813      N1815   1.156       .  T
C1814      N1816   1.157       .  T
C1819      C1820   1.414       .  A
C1819      C1824   1.410   1_455  A
C1820      C1821   1.413       .  A
C1820      C1825   1.450       .  S
C1821      C1822   1.410       .  A
C1821      C1828   1.449       .  S
C1822      C1823   1.409   1_455  A
C1823      C1824   1.406       .  A
C1823      C1826   1.449       .  S
C1824      C1827   1.451       .  S
C1825      N1832   1.158       .  T
C1826      N1831   1.157       .  T
C1827      N1829   1.157       .  T
C1828      N1830   1.157       .  T
C1833      C1834   1.413       .  A
C1833      C1838   1.406       .  A
C1834      C1835   1.415       .  A
C1834      C1839   1.449       .  S
C1835      C1836   1.414       .  A
C1835      C1842   1.449       .  S
C1836      C1837   1.415       .  A
C1837      C1838   1.403       .  A
C1837      C1840   1.452   1_545  S
C1838      C1841   1.448   1_545  S
C1839      N1846   1.157       .  T
C1840      N1845   1.157       .  T
C1841      N1843   1.157       .  T
C1842      N1844   1.158       .  T
C1847      C1848   1.419       .  A
C1847      C1852   1.417       .  A
C1848      C1849   1.418       .  A
C1848      C1853   1.451       .  S
C1849      C1850   1.413       .  A
C1849      C1856   1.449       .  S
C1850      C1851   1.412       .  A
C1851      C1852   1.408       .  A
C1851      C1854   1.455   1_545  S
C1852      C1855   1.447   1_545  S
C1853      N1860   1.157       .  T
C1854      N1859   1.158       .  T
C1855      N1857   1.155       .  T
C1856      N1858   1.157       .  T
C1861      C1862   1.418       .  A
C1861      C1866   1.413   1_545  A
C1862      C1863   1.412       .  A
C1862      C1867   1.451       .  S
C1863      C1864   1.410       .  A
C1863      C1870   1.451       .  S
C1864      C1865   1.413       .  A
C1865      C1866   1.410   1_545  A
C1865      C1868   1.452   1_545  S
C1866      C1869   1.451       .  S
C1867      N1874   1.157       .  T
C1868      N1873   1.157       .  T
C1869      N1871   1.157       .  T
C1870      N1872   1.157       .  T
C1875      C1876   1.412       .  A
C1875      C1880   1.421       .  A
C1876      C1877   1.403       .  A
C1876      C1881   1.454       .  S
C1877      C1878   1.421       .  A
C1877      C1884   1.451       .  S
C1878      C1879   1.417       .  A
C1879      C1880   1.419       .  A
C1879      C1882   1.451       .  S
C1880      C1883   1.450       .  S
C1881      N1888   1.157       .  T
C1882      N1887   1.157   1_545  T
C1883      N1885   1.157   1_545  T
C1884      N1886   1.158       .  T
C1889      C1890   1.414       .  A
C1889      C1894   1.416       .  A
C1890      C1891   1.404       .  A
C1890      C1895   1.455       .  S
C1891      C1892   1.417       .  A
C1891      C1898   1.448       .  S
C1892      C1893   1.419       .  A
C1893      C1894   1.416       .  A
C1893      C1896   1.451       .  S
C1894      C1897   1.451   1_556  S
C1895      N1902   1.158       .  T
C1896      N1901   1.157   1_556  T
C1897      N1899   1.157       .  T
C1898      N1900   1.156       .  T
C1903      C1904   1.415       .  A
C1903      C1908   1.412   1_556  A
C1904      C1905   1.413       .  A
C1904      C1909   1.451       .  S
C1905      C1906   1.412       .  A
C1905      C1912   1.451       .  S
C1906      C1907   1.413       .  A
C1907      C1908   1.409   1_556  A
C1907      C1910   1.451   1_556  S
C1908      C1911   1.451       .  S
C1909      N1916   1.157       .  T
C1910      N1915   1.157       .  T
C1911      N1913   1.157       .  T
C1912      N1914   1.157       .  T
C1917      C1918   1.412       .  A
C1917      C1922   1.410       .  A
C1918      C1919   1.408       .  A
C1918      C1923   1.451   1_556  S
C1919      C1920   1.410       .  A
C1919      C1926   1.451   1_556  S
C1920      C1921   1.413       .  A
C1921      C1922   1.413       .  A
C1921      C1924   1.450       .  S
C1922      C1925   1.450       .  S
C1923      N1930   1.157       .  T
C1924      N1929   1.157       .  T
C1925      N1927   1.157       .  T
C1926      N1928   1.157       .  T
C1931      C1932   1.416       .  A
C1931      C1936   1.417       .  A
C1932      C1933   1.407       .  A
C1932      C1937   1.451   1_556  S
C1933      C1934   1.413       .  A
C1933      C1940   1.454   1_556  S
C1934      C1935   1.413       .  A
C1935      C1936   1.411       .  A
C1935      C1938   1.452       .  S
C1936      C1939   1.452       .  S
C1937      N1944   1.157       .  T
C1938      N1943   1.157       .  T
C1939      N1941   1.157       .  T
C1940      N1942   1.157       .  T
C1945      C1946   1.418       .  A
C1945      C1950   1.413       .  A
C1946      C1947   1.415       .  A
C1946      C1951   1.451       .  S
C1947      C1948   1.418       .  A
C1947      C1954   1.450       .  S
C1948      C1949   1.417       .  A
C1949      C1950   1.406       .  A
C1949      C1952   1.447       .  S
C1950      C1953   1.455       .  S
C1951      N1958   1.157       .  T
C1952      N1957   1.155       .  T
C1953      N1955   1.157       .  T
C1954      N1956   1.158       .  T
C1959      C1960   1.417       .  A
C1959      C1964   1.412       .  A
C1960      C1961   1.412       .  A
C1960      C1965   1.452       .  S
C1961      C1962   1.411       .  A
C1961      C1968   1.450       .  S
C1962      C1963   1.414       .  A
C1963      C1964   1.412       .  A
C1963      C1966   1.451       .  S
C1964      C1967   1.450       .  S
C1965      N1972   1.157       .  T
C1966      N1971   1.157       .  T
C1967      N1969   1.157       .  T
C1968      N1970   1.157       .  T
C1973      C1974   1.410       .  A
C1973      C1978   1.416       .  A
C1974      C1975   1.409       .  A
C1974      C1979   1.452       .  S
C1975      C1976   1.412       .  A
C1975      C1982   1.446       .  S
C1976      C1977   1.411       .  A
C1977      C1978   1.410       .  A
C1977      C1980   1.451       .  S
C1978      C1981   1.451       .  S
C1979      N1986   1.157       .  T
C1980      N1985   1.157       .  T
C1981      N1983   1.157       .  T
C1982      N1984   1.156       .  T
C1987      C1988   1.415       .  A
C1987      C1992   1.418       .  A
C1988      C1989   1.405       .  A
C1988      C1993   1.454       .  S
C1989      C1990   1.420       .  A
C1989      C1996   1.450       .  S
C1990      C1991   1.421       .  A
C1991      C1992   1.417       .  A
C1991      C1994   1.451       .  S
C1992      C1995   1.451       .  S
C1993      N2000   1.158       .  T
C1994      N1999   1.158       .  T
C1995      N1997   1.157       .  T
C1996      N1998   1.158       .  T
C2001      C2002   1.409       .  A
C2001      C2006   1.412       .  A
C2002      C2003   1.415       .  A
C2002      C2007   1.448       .  S
C2003      C2004   1.415       .  A
C2003      C2010   1.449       .  S
C2004      C2005   1.409       .  A
C2005      C2006   1.406       .  A
C2005      C2008   1.447       .  S
C2006      C2009   1.453       .  S
C2007      N2014   1.157       .  T
C2008      N2013   1.156       .  T
C2009      N2011   1.157       .  T
C2010      N2012   1.157       .  T
C2015      C2016   1.421       .  A
C2015      C2020   1.421       .  A
C2016      C2017   1.410       .  A
C2016      C2021   1.453       .  S
C2017      C2018   1.421       .  A
C2017      C2024   1.456       .  S
C2018      C2019   1.419       .  A
C2019      C2020   1.418       .  A
C2019      C2022   1.451       .  S
C2020      C2023   1.452       .  S
C2021      N2028   1.157       .  T
C2022      N2027   1.158       .  T
C2023      N2025   1.158       .  T
C2024      N2026   1.158       .  T
C2029      C2030   1.416       .  A
C2029      C2034   1.416       .  A
C2030      C2031   1.417       .  A
C2030      C2035   1.451       .  S
C2031      C2032   1.420       .  A
C2031      C2038   1.450       .  S
C2032      C2033   1.421       .  A
C2033      C2034   1.406       .  A
C2033      C2036   1.454       .  S
C2034      C2037   1.455       .  S
C2035      N2042   1.157       .  T
C2036      N2041   1.158       .  T
C2037      N2039   1.157       .  T
C2038      N2040   1.157       .  T
C2043      C2044   1.408       .  A
C2043      C2048   1.414       .  A
C2044      C2045   1.411       .  A
C2044      C2049   1.450       .  S
C2045      C2046   1.413       .  A
C2045      C2052   1.449       .  S
C2046      C2047   1.409       .  A
C2047      C2048   1.409       .  A
C2047      C2050   1.450       .  S
C2048      C2051   1.452       .  S
C2049      N2056   1.157       .  T
C2050      N2055   1.157       .  T
C2051      N2053   1.157       .  T
C2052      N2054   1.157       .  T
C2057      C2058   1.416       .  A
C2057      C2062   1.416       .  A
C2058      C2059   1.413       .  A
C2058      C2063   1.451       .  S
C2059      C2060   1.415       .  A
C2059      C2066   1.451       .  S
C2060      C2061   1.415       .  A
C2061      C2062   1.412       .  A
C2061      C2064   1.450       .  S
C2062      C2065   1.453       .  S
C2063      N2070   1.157       .  T
C2064      N2069   1.156       .  T
C2065      N2067   1.157       .  T
C2066      N2068   1.157       .  T
C2071      C2072   1.411       .  A
C2071      C2076   1.417       .  A
C2072      C2073   1.401       .  A
C2072      C2077   1.454       .  S
C2073      C2074   1.420       .  A
C2073      C2080   1.451       .  S
C2074      C2075   1.420       .  A
C2075      C2076   1.417       .  A
C2075      C2078   1.450       .  S
C2076      C2079   1.450       .  S
C2077      N2084   1.157       .  T
C2078      N2083   1.157       .  T
C2079      N2081   1.157       .  T
C2080      N2082   1.158       .  T
C2085      C2086   1.413       .  A
C2085      C2090   1.415       .  A
C2086      C2087   1.409       .  A
C2086      C2091   1.453       .  S
C2087      C2088   1.417       .  A
C2087      C2094   1.450       .  S
C2088      C2089   1.414       .  A
C2089      C2090   1.413       .  A
C2089      C2092   1.451       .  S
C2090      C2093   1.449       .  S
C2091      N2098   1.158       .  T
C2092      N2097   1.157       .  T
C2093      N2095   1.156       .  T
C2094      N2096   1.157       .  T
C2099      C2100   1.412       .  A
C2099      C2104   1.409       .  A
C2100      C2101   1.411       .  A
C2100      C2105   1.450       .  S
C2101      C2102   1.411       .  A
C2101      C2108   1.450       .  S
C2102      C2103   1.411       .  A
C2103      C2104   1.406       .  A
C2103      C2106   1.451       .  S
C2104      C2107   1.450       .  S
C2105      N2112   1.157       .  T
C2106      N2111   1.157       .  T
C2107      N2109   1.157       .  T
C2108      N2110   1.157       .  T
