geometry optimzed in LAMMPS
_audit_creation_date              2020-12-01 
_audit_creation_method            'lammps2cif' 
_symmetry_space_group_name_H-M    'P1' 
_symmetry_Int_Tables_number       1 
_symmetry_cell_setting            triclinic 
loop_ 
_symmetry_equiv_pos_as_xyz 
  x,y,z 
_cell_length_a                    39.44803696 
_cell_length_b                    39.28820816337123 
_cell_length_c                    39.21702488213545 
_cell_angle_alpha                 90.13801087834526 
_cell_angle_beta                  89.89598117718732 
_cell_angle_gamma                 90.04878799033186 
loop_ 
_atom_site_label 
_atom_site_type_symbol 
_atom_site_fract_x 
_atom_site_fract_y 
_atom_site_fract_z 
_atom_site_charge 
C1          C  0.19377942  0.81834328  0.53055205     0.79900
N2          N  0.16758999  0.84091258  0.53263545    -0.78400
C3          C  0.15210262  0.85193547  0.50351413     0.82400
N4          N  0.16282540  0.84010072  0.47258081    -0.78300
C5          C  0.18890105  0.81756742  0.47091768     0.82500
N6          N  0.20417268  0.80714170  0.49974283    -0.80000
C7          C  0.93411128  0.06254411  0.53406344     0.79900
N8          N  0.96059917  0.04034311  0.53417513    -0.78400
C9          C  0.97347859  0.02877829  0.50385095     0.82400
N10         N  0.95984104  0.03980767  0.47374111    -0.78300
C11         C  0.93337707  0.06209616  0.47420613     0.82500
N12         N  0.92103971  0.07293212  0.50430395    -0.80000
C13         C  0.93740248  0.81525389  0.53509542     0.79900
N14         N  0.92508631  0.80339685  0.50536527    -0.78400
C15         C  0.93673946  0.81498596  0.47525298     0.82400
N16         N  0.96166318  0.83906211  0.47473973    -0.78300
C17         C  0.97465981  0.85109503  0.50479870     0.82500
N18         N  0.96220210  0.83931125  0.53506823    -0.80000
C19         C  0.53041279  0.82048787  0.13801040     0.79900
N20         N  0.53060059  0.84258447  0.11124646    -0.78400
C21         C  0.56086062  0.85342833  0.09797942     0.82400
N22         N  0.59058212  0.84112963  0.11090483    -0.78300
C23         C  0.58988324  0.81880362  0.13740452     0.82500
N24         N  0.55994362  0.80892355  0.15052023    -0.80000
C25         C  0.93436811  0.40784164  0.12419234     0.79900
N26         N  0.92266615  0.43812579  0.13534228    -0.78400
C27         C  0.93422620  0.46762069  0.12232076     0.82400
N28         N  0.95827873  0.46705671  0.09738525    -0.78300
C29         C  0.97018478  0.43658300  0.08550777     0.82500
N30         N  0.95818352  0.40687297  0.09901520    -0.80000
C31         C  0.92940439  0.40812173  0.87113326     0.79900
N32         N  0.92341942  0.43801638  0.85558443    -0.78400
C33         C  0.93997430  0.46651336  0.86492370     0.82400
N34         N  0.96271742  0.46539825  0.89090471    -0.78300
C35         C  0.96936136  0.43521736  0.90674503     0.82500
N36         N  0.95270102  0.40636870  0.89668517    -0.80000
C37         C  0.58331126  0.05820104  0.87015268     0.79900
N38         N  0.58540945  0.03620157  0.89689360    -0.78400
C39         C  0.55649465  0.02411216  0.91187330     0.82400
N40         N  0.52556891  0.03446645  0.90011704    -0.78300
C41         C  0.52385434  0.05651081  0.87340926     0.82500
N42         N  0.55261466  0.06780907  0.85867634    -0.80000
C43         C  0.18567212  0.41136890  0.87015251     0.79900
N44         N  0.19844154  0.44169618  0.86091879    -0.78400
C45         C  0.18642244  0.47088178  0.87424375     0.82400
N46         N  0.16035005  0.46996569  0.89696741    -0.78300
C47         C  0.14708201  0.43931091  0.90655568     0.82500
N48         N  0.16001706  0.40985146  0.89332010    -0.80000
C49         C  0.53610104  0.80523112  0.88555950     0.79900
N50         N  0.56627917  0.79454481  0.87358071    -0.78400
C51         C  0.59541304  0.80918574  0.88375378     0.82400
N52         N  0.59468879  0.83503303  0.90694660    -0.78300
C53         C  0.56422499  0.84614935  0.91938028     0.82500
N54         N  0.53488502  0.83123120  0.90852697    -0.80000
C55         C  0.08946122  0.31838927  0.37293261     0.79900
N56         N  0.05998821  0.30478964  0.36238724    -0.78400
C57         C  0.03016803  0.31519346  0.37537013     0.82400
N58         N  0.02944151  0.34021613  0.39946379    -0.78300
C59         C  0.05914968  0.35426837  0.41065933     0.82500
N60         N  0.08933156  0.34314954  0.39739270    -0.80000
O61         O  0.33390932  0.23611242  0.21223907    -0.88600
C62         C  0.23572671  0.20172320  0.21620767     0.87400
Mg63       Mg  0.37556385  0.20469894  0.19707573     1.58100
O64         O  0.27725591  0.21816805  0.29414582    -0.88400
O65         O  0.31655158  0.27287043  0.25016646    -0.75700
C66         C  0.36303485  0.07195213  0.29405950     0.92500
O67         O  0.30026400  0.17905829  0.16287879    -0.75500
O68         O  0.37374765  0.08045598  0.26483398    -0.83000
Mg69       Mg  0.29205572  0.23529645  0.17759415     1.58000
C70         C  0.26303786  0.13893313  0.36486241     0.92400
O71         O  0.28214324  0.29167792  0.18551680    -0.81300
H72         H  0.29981467  0.24888876  0.32799439    -0.06600
C73         C  0.27685660  0.11950669  0.26073903     0.87300
O74         O  0.39134077  0.19703907  0.25286395    -0.75800
O75         O  0.26019872  0.22093618  0.22014862    -0.88500
O76         O  0.25371528  0.16731357  0.35272674    -0.81400
C77         C  0.19170856  0.24100838  0.30184312     0.92500
C78         C  0.25449230  0.30504864  0.19504358     0.92300
Mg79       Mg  0.32601646  0.14349652  0.31361306     1.58000
O80         O  0.33737969  0.08667202  0.30714161    -0.81300
O81         O  0.31812635  0.20049032  0.32719160    -0.75500
O82         O  0.20460744  0.25073355  0.27382887    -0.81400
O83         O  0.32713571  0.25275442  0.13552859    -0.83100
O84         O  0.41097659  0.12540309  0.21274650    -0.81400
C85         C  0.29823432  0.22374708  0.31683860     0.86800
O86         O  0.35781099  0.15700485  0.27109236    -0.88500
O87         O  0.28295572  0.14357044  0.28003617    -0.88600
O88         O  0.29931946  0.10810457  0.24048371    -0.75700
Mg89       Mg  0.26077745  0.25799027  0.26058197     1.58000
O90         O  0.20193774  0.21372641  0.31578934    -0.83100
H91         H  0.36416409  0.27288583  0.23019761    -0.06800
O92         O  0.34075639  0.16219080  0.19667817    -0.88300
H93         H  0.32030626  0.13143248  0.16154515    -0.06600
H94         H  0.39387971  0.17729901  0.30060160    -0.06800
C95         C  0.32075807  0.15640835  0.17317496     0.86800
C96         C  0.33942511  0.26103260  0.23063077     0.87300
C97         C  0.38160892  0.17676052  0.27597938     0.87400
H98         H  0.25190992  0.10809255  0.26091172    -0.06800
O99         O  0.22491597  0.18339847  0.24060117    -0.75800
Mg100      Mg  0.35541143  0.12117799  0.22922069     1.58000
H101        H  0.22330320  0.20049426  0.19168561    -0.06800
C102        C  0.35559751  0.24110780  0.12600066     0.92400
O103        O  0.41758117  0.17084480  0.17997973    -0.83000
C104        C  0.42707709  0.14174650  0.18988650     0.92400
O105        O  0.24126406  0.29673212  0.22329316    -0.83000
Mg106      Mg  0.24219230  0.17668984  0.29661899     1.58200
O107        O  0.36882571  0.21559078  0.14057732    -0.81300
O108        O  0.29088074  0.12588477  0.35535350    -0.83000
C109        C  0.42727977  0.91043220  0.37976685     0.79900
N110        N  0.45329182  0.91110118  0.40250651    -0.78400
C111        C  0.46717572  0.94151411  0.41203757     0.82400
N112        N  0.45537499  0.97104886  0.39807916    -0.78300
C113        C  0.42962439  0.96990143  0.37501724     0.82500
N114        N  0.41589406  0.93974747  0.36622701    -0.80000
O115        O  0.26422325  0.65831360  0.21885621    -0.88600
C116        C  0.29250292  0.65810811  0.31957399     0.87400
Mg117      Mg  0.29798857  0.64081506  0.17914539     1.58100
O118        O  0.28472864  0.73806803  0.27915690    -0.88400
O119        O  0.22968258  0.69854910  0.23523778    -0.75700
C120        C  0.43200109  0.73272687  0.20037800     0.92500
O121        O  0.31513389  0.60516376  0.25513205    -0.75500
O122        O  0.42363503  0.70467832  0.18674898    -0.83000
Mg123      Mg  0.25950927  0.62344497  0.26052519     1.58000
C124        C  0.36685289  0.80410470  0.29987136     0.92400
O125        O  0.20345870  0.63532833  0.26825773    -0.81300
H126        H  0.25809742  0.77489409  0.25638875    -0.06600
C127        C  0.38085779  0.69801701  0.28392505     0.87300
O128        O  0.31048737  0.69637056  0.16443484    -0.75800
O129        O  0.27510703  0.66416620  0.29419173    -0.88500
O130        O  0.33850539  0.79192506  0.30925057    -0.81400
C131        C  0.25826750  0.74538529  0.36417455     0.92500
C132        C  0.19051384  0.64427743  0.29649907     0.92300
Mg133      Mg  0.36286972  0.75339750  0.23568305     1.58000
O134        O  0.41892620  0.74136585  0.22870000    -0.81300
O135        O  0.30711585  0.77127145  0.24058389    -0.75500
O136        O  0.24590878  0.71940781  0.34944750    -0.81400
O137        O  0.24082382  0.58339782  0.22357191    -0.83100
O138        O  0.37699952  0.65707942  0.14676637    -0.81400
C139        C  0.28210917  0.76189215  0.25882725     0.86800
O140        O  0.34772827  0.71255159  0.20203405    -0.88500
O141        O  0.35811796  0.71854369  0.27729733    -0.88600
O142        O  0.39259647  0.67812083  0.26115620    -0.75700
Mg143      Mg  0.24151328  0.70719280  0.29250242     1.58000
O144        O  0.28732785  0.75644811  0.35575351    -0.83100
H145        H  0.23118432  0.67985745  0.18682860    -0.06800
O146        O  0.33771573  0.63833864  0.21667085    -0.88300
H147        H  0.36403385  0.60105730  0.23905979    -0.06600
H148        H  0.33205699  0.74340895  0.16474935    -0.06800
C149        C  0.34016231  0.61435741  0.23682700     0.86800
C150        C  0.24139302  0.67876672  0.21236593     0.87300
C151        C  0.33039851  0.71866719  0.17664602     0.87400
H152        H  0.39093483  0.69692741  0.30951802    -0.06800
O153        O  0.31228388  0.68051705  0.33183351    -0.75800
Mg154      Mg  0.38118887  0.66944306  0.20377798     1.58000
H155        H  0.29098855  0.63334572  0.33144656    -0.06800
C156        C  0.25476236  0.57231073  0.19662190     0.92400
O157        O  0.33497953  0.62048919  0.14002841    -0.83000
C158        C  0.36426616  0.63120037  0.13202656     0.92400
O159        O  0.19936557  0.67227038  0.30994614    -0.83000
Mg160      Mg  0.32424454  0.73611084  0.31675485     1.58200
O161        O  0.28227152  0.58498658  0.18547879    -0.81300
O162        O  0.38095287  0.79364141  0.27274340    -0.83000
O163        O  0.76539245  0.21424078  0.22347707    -0.88600
C164        C  0.79580224  0.11428541  0.22749054     0.87400
Mg165      Mg  0.79776590  0.25411912  0.20489761     1.58100
O166        O  0.78475700  0.15816457  0.30518784    -0.88400
O167        O  0.72975580  0.19887356  0.26313279    -0.75700
C168        C  0.93150812  0.23907263  0.29925845     0.92500
O169        O  0.81801205  0.17631738  0.17271059    -0.75500
O170        O  0.92221435  0.25140671  0.27089903    -0.83000
Mg171      Mg  0.76235472  0.17083054  0.19052813     1.58000
C172        C  0.86527866  0.14173988  0.37290285     0.92400
O173        O  0.70656845  0.16445183  0.20291834    -0.81300
H174        H  0.75682575  0.18190641  0.34063262    -0.06600
C175        C  0.88203142  0.15423751  0.26716446     0.87300
O176        O  0.80893313  0.27117616  0.26022103    -0.75800
O177        O  0.77753463  0.13927929  0.23254626    -0.88500
O178        O  0.83655113  0.13362445  0.36107191    -0.81400
C179        C  0.76160174  0.07298233  0.31618083     0.92500
C180        C  0.69294747  0.13656375  0.21141451     0.92300
Mg181      Mg  0.86192591  0.20374172  0.32083051     1.58000
O182        O  0.91819389  0.21176319  0.31006664    -0.81300
O183        O  0.80571727  0.19823168  0.33765723    -0.75500
O184        O  0.74724508  0.08670997  0.29067896    -0.81400
O185        O  0.74380921  0.20461226  0.14870250    -0.83100
O186        O  0.87467968  0.28885503  0.22225862    -0.81400
C187        C  0.78120214  0.17935115  0.32825016     0.86800
O188        O  0.84666242  0.23532014  0.27866309    -0.88500
O189        O  0.85864552  0.16136632  0.28688454    -0.88600
O190        O  0.89364394  0.17617462  0.24642065    -0.75700
Mg191      Mg  0.74246690  0.14238640  0.27450201     1.58000
O192        O  0.79042554  0.08277845  0.32634486    -0.83100
H193        H  0.73098374  0.24642202  0.24271706    -0.06800
O194        O  0.83837528  0.21748619  0.20420113    -0.88300
H195        H  0.86632084  0.19399557  0.16859473    -0.06600
H196        H  0.82911998  0.27326981  0.30785950    -0.06800
C197        C  0.84207024  0.19612503  0.18130468     0.86800
C198        C  0.74174195  0.22112447  0.24293866     0.87300
C199        C  0.82847594  0.26038102  0.28348197     0.87400
H200        H  0.89270821  0.12890568  0.26746655    -0.06800
O201        O  0.81588439  0.10373636  0.25039549    -0.75800
Mg202      Mg  0.88063039  0.23260421  0.23586731     1.58000
H203        H  0.79495163  0.10143659  0.20309628    -0.06800
C204        C  0.75528991  0.23231080  0.13701375     0.92400
O205        O  0.83401916  0.29332397  0.18370746    -0.83000
C206        C  0.86224500  0.30285226  0.19594034     0.92400
O207        O  0.70125838  0.12249789  0.23921432    -0.83000
Mg208      Mg  0.82563534  0.12203010  0.30542858     1.58200
O209        O  0.78193254  0.24587552  0.14924536    -0.81300
O210        O  0.88051900  0.16795794  0.36201223    -0.83000
C211        C  0.67866718  0.91030462  0.37524144     0.79900
N212        N  0.65386623  0.90955589  0.39942004    -0.78400
C213        C  0.64476725  0.93898311  0.41570033     0.82400
N214        N  0.66066244  0.96882796  0.40772983    -0.78300
C215        C  0.68571354  0.96896713  0.38387199     0.82500
N216        N  0.69423909  0.93986065  0.36796376    -0.80000
O217        O  0.78761284  0.64406869  0.21606026    -0.88600
C218        C  0.88240053  0.68687852  0.21251452     0.87400
Mg219      Mg  0.74389718  0.67454307  0.20332602     1.58100
O220        O  0.84872099  0.66975287  0.29343396    -0.88400
O221        O  0.81007977  0.61043419  0.25401301    -0.75700
C222        C  0.75134680  0.80798972  0.30084912     0.92500
O223        O  0.81452190  0.70330047  0.16508801    -0.75500
O224        O  0.74109150  0.79754464  0.27213122    -0.83000
Mg225      Mg  0.82745270  0.64763468  0.17863304     1.58000
C226        C  0.86223761  0.74856707  0.36751570     0.92400
O227        O  0.84334297  0.59195608  0.18396441    -0.81300
H228        H  0.83369736  0.63758106  0.32992770    -0.06600
C229        C  0.83954108  0.76899398  0.26176008     0.87300
O230        O  0.73140611  0.68147272  0.26077699    -0.75800
O231        O  0.86078167  0.66484179  0.21831879    -0.88500
O232        O  0.87606248  0.72451082  0.35078781    -0.81400
C233        C  0.93395089  0.65160929  0.29516123     0.92500
C234        C  0.87005623  0.57799353  0.19525503     0.92300
Mg235      Mg  0.79696101  0.73972676  0.31907635     1.58000
O236        O  0.77668893  0.79452328  0.31571036    -0.81300
O237        O  0.81140084  0.68419155  0.33173120    -0.75500
O238        O  0.92110278  0.64264044  0.26692186    -0.81400
O239        O  0.79089221  0.62731353  0.13963718    -0.83100
O240        O  0.70455607  0.74413640  0.23014059    -0.81400
C241        C  0.83157016  0.66260070  0.31872296     0.86800
O242        O  0.76457373  0.72246447  0.27843663    -0.88500
O243        O  0.83711219  0.74487533  0.28176555    -0.88600
O244        O  0.81502703  0.77732089  0.24253461    -0.75700
Mg245      Mg  0.86536459  0.62945962  0.25944548     1.58000
O246        O  0.92407731  0.67890400  0.30943526    -0.83100
H247        H  0.76132459  0.60623678  0.23770877    -0.06800
O248        O  0.77696505  0.71772140  0.20320474    -0.88300
H249        H  0.79234388  0.74997832  0.16690226    -0.06600
H250        H  0.73172033  0.69916898  0.30958038    -0.06800
C251        C  0.79429520  0.72490083  0.17801437     0.86800
C252        C  0.78514392  0.61973014  0.23577893     0.87300
C253        C  0.74223133  0.70115412  0.28418339     0.87400
H254        H  0.86312893  0.78293839  0.26020762    -0.06800
O255        O  0.89267142  0.70693364  0.23585597    -0.75800
Mg256      Mg  0.76024251  0.75752967  0.23672482     1.58000
H257        H  0.89265753  0.68928483  0.18705071    -0.06800
C258        C  0.76179953  0.63846505  0.13173863     0.92400
O259        O  0.70074320  0.70905868  0.18683482    -0.83000
C260        C  0.69093014  0.73574146  0.20216917     0.92400
O261        O  0.88412526  0.58883424  0.22231629    -0.83000
Mg262      Mg  0.88092738  0.71380895  0.29343472     1.58200
O263        O  0.74999084  0.66483734  0.14619887    -0.81300
O264        O  0.83311645  0.75983859  0.35954403    -0.83000
C265        C  0.09066211  0.56623064  0.36818020     0.79900
N266        N  0.06184976  0.57881353  0.35496530    -0.78400
C267        C  0.03129547  0.56904626  0.36671986     0.82400
N268        N  0.02925995  0.54575008  0.39238044    -0.78300
C269        C  0.05835292  0.53228651  0.40569593     0.82500
N270        N  0.08915648  0.54283785  0.39367696    -0.80000
C271        C  0.43794395  0.31012526  0.96336279     0.79900
N272        N  0.46239437  0.33453691  0.96457232    -0.78400
C273        C  0.47330797  0.34636287  0.99550381     0.82400
N274        N  0.45921478  0.33387742  0.02490944    -0.78300
C275        C  0.43454974  0.30957443  0.02308872     0.82500
N276        N  0.42450219  0.29812009  0.99239290    -0.80000
O277        O  0.28009258  0.24163584  0.71965888    -0.88600
C278        C  0.27331904  0.20702735  0.81802855     0.87400
Mg279      Mg  0.26375592  0.21127695  0.67719055     1.58100
O280        O  0.35545907  0.21213332  0.78303989    -0.88400
O281        O  0.32164298  0.27233610  0.74015008    -0.75700
C282        C  0.34389491  0.06993334  0.69496526     0.92500
O283        O  0.22274829  0.19063431  0.75130014    -0.75500
O284        O  0.31709149  0.08200043  0.68227931    -0.83000
Mg285      Mg  0.24360969  0.24463508  0.76028118     1.58000
C286        C  0.41687754  0.12445827  0.80084453     0.92400
O287        O  0.25763651  0.29983659  0.77074325    -0.81300
H288        H  0.39485240  0.23825249  0.76430768    -0.06600
C289        C  0.30932115  0.11860815  0.78054527     0.87300
O290        O  0.31906848  0.19621697  0.66528864    -0.75800
O291        O  0.28178326  0.22511287  0.79379965    -0.88500
O292        O  0.40387269  0.15055929  0.81503399    -0.81400
C293        C  0.35943553  0.23497986  0.86689885     0.92500
C294        C  0.26616781  0.31167594  0.79953685     0.92300
Mg295      Mg  0.36849977  0.13636886  0.73545449     1.58000
O296        O  0.35503947  0.08110084  0.72325042    -0.81300
O297        O  0.38930564  0.19059946  0.74472571    -0.75500
O298        O  0.33237143  0.24603665  0.85355633    -0.81400
O299        O  0.20520443  0.26586270  0.72429740    -0.83100
O300        O  0.27778184  0.13329617  0.64241633    -0.81400
C301        C  0.38045618  0.21482354  0.76429101     0.86800
O302        O  0.33030837  0.15609169  0.70174094    -0.88500
O303        O  0.33230659  0.13958971  0.77647719    -0.88600
O304        O  0.28951728  0.11054851  0.75627179    -0.75700
Mg305      Mg  0.32586399  0.25650211  0.79689614     1.58000
O306        O  0.37003161  0.20545245  0.85921345    -0.83100
H307        H  0.30546001  0.27524099  0.69101368    -0.06800
O308        O  0.25645328  0.16987982  0.71243504    -0.88300
H309        H  0.21706154  0.14346337  0.73070729    -0.06600
H310        H  0.36436994  0.17167992  0.66727768    -0.06800
C311        C  0.23143191  0.16690428  0.73111006     0.86800
C312        C  0.30230389  0.26350589  0.71572570     0.87300
C313        C  0.33911593  0.17428208  0.67771567     0.87400
H314        H  0.30577951  0.10711064  0.80531547    -0.06800
O315        O  0.29382141  0.18564508  0.83072543    -0.75800
Mg316      Mg  0.28520753  0.12559433  0.69941964     1.58000
H317        H  0.24809347  0.20940941  0.82858302    -0.06800
C318        C  0.19540740  0.25564321  0.69524417     0.92400
O319        O  0.24439443  0.17776897  0.63473130    -0.83000
C320        C  0.25430828  0.14825453  0.62624431     0.92400
O321        O  0.29222346  0.30007243  0.81440188    -0.83000
Mg322      Mg  0.34920390  0.17056516  0.81850190     1.58200
O323        O  0.20917659  0.23026173  0.68071168    -0.81300
O324        O  0.40658764  0.11440270  0.77192336    -0.83000
C325        C  0.43224502  0.91205661  0.63091193     0.79900
N326        N  0.41671843  0.94116000  0.64007767    -0.78400
C327        C  0.42458598  0.97085726  0.62494594     0.82400
N328        N  0.44866902  0.97176489  0.60010594    -0.78300
C329        C  0.46442056  0.94234369  0.59045885     0.82500
N330        N  0.45615303  0.91238244  0.60593893    -0.80000
O331        O  0.36075296  0.72415609  0.73216701    -0.88600
C332        C  0.32099688  0.72050690  0.82865243     0.87400
Mg333      Mg  0.33024976  0.74074132  0.68975367     1.58100
O334        O  0.33427609  0.64313274  0.78532568    -0.88400
O335        O  0.39425418  0.68378353  0.74955326    -0.75700
C336        C  0.19430324  0.64625327  0.69210957     0.92500
O337        O  0.30327776  0.77350254  0.76368520    -0.75500
O338        O  0.20497986  0.67491995  0.68179202    -0.83000
Mg339      Mg  0.35875126  0.75824316  0.77513725     1.58000
C340        C  0.25267996  0.57443313  0.79715326     0.92400
O341        O  0.41405965  0.75100228  0.79142696    -0.81300
H342        H  0.36446101  0.60702879  0.76589051    -0.06600
C343        C  0.23672758  0.67857328  0.78198110     0.87300
O344        O  0.32195188  0.68488480  0.67273296    -0.75800
O345        O  0.34175181  0.71611192  0.80542145    -0.88500
O346        O  0.28104319  0.58604301  0.80698269    -0.81400
C347        C  0.35380799  0.63179358  0.87051022     0.92500
C348        C  0.42824977  0.73500283  0.81570573     0.92300
Mg349      Mg  0.26172045  0.62458470  0.73432368     1.58000
O350        O  0.20625958  0.63286950  0.71898733    -0.81300
O351        O  0.31715702  0.60852081  0.74535385    -0.75500
O352        O  0.36431696  0.66037072  0.85973978    -0.81400
O353        O  0.37952914  0.79955724  0.74102149    -0.83100
O354        O  0.25586494  0.72268323  0.64803699    -0.81400
C355        C  0.33988091  0.61917528  0.76570529     0.86800
O356        O  0.27957055  0.66626068  0.70346145    -0.88500
O357        O  0.26073174  0.65906190  0.77711745    -0.88600
O358        O  0.22718454  0.69897257  0.75884514    -0.75700
Mg359      Mg  0.37576478  0.67330935  0.80433193     1.58000
O360        O  0.32585304  0.62009709  0.85985072    -0.83100
H361        H  0.39800381  0.70570021  0.70278850    -0.06800
O362        O  0.28671418  0.73987226  0.72261674    -0.88300
H363        H  0.25621943  0.77534614  0.74268850    -0.06600
H364        H  0.30256636  0.63707484  0.66853161    -0.06800
C365        C  0.28086384  0.76333095  0.74276465     0.86800
C366        C  0.38490047  0.70488324  0.72700999     0.87300
C367        C  0.30114608  0.66157344  0.68106429     0.87400
H368        H  0.22373388  0.67837928  0.80627800    -0.06800
O369        O  0.30041214  0.69710567  0.83730414    -0.75800
Mg370      Mg  0.24553711  0.70904224  0.70369280     1.58000
H371        H  0.32017426  0.74476171  0.84170887    -0.06800
C372        C  0.36823567  0.80955952  0.71253868     0.92400
O373        O  0.29709494  0.76066130  0.64727479    -0.83000
C374        C  0.26939884  0.74924124  0.63554539     0.92400
O375        O  0.41744805  0.70621832  0.82545344    -0.83000
Mg376      Mg  0.29163303  0.64163421  0.81908735     1.58200
O377        O  0.34112928  0.79683371  0.70052053    -0.81300
O378        O  0.24010936  0.58413402  0.76912684    -0.83000
C379        C  0.08799292  0.57931102  0.61699602     0.79900
N380        N  0.05822000  0.59057373  0.62938119    -0.78400
C381        C  0.02865740  0.57679359  0.61937892     0.82400
N382        N  0.02848283  0.55068213  0.59654531    -0.78300
C383        C  0.05848403  0.53855698  0.58402092     0.82500
N384        N  0.08838452  0.55283538  0.59446417    -0.80000
C385        C  0.08763579  0.32938156  0.63104919     0.79900
N386        N  0.08759375  0.35071319  0.60378340    -0.78400
C387        C  0.05755998  0.36036089  0.58955646     0.82400
N388        N  0.02775168  0.34796058  0.60236535    -0.78300
C389        C  0.02828636  0.32629117  0.62944860     0.82500
N390        N  0.05811189  0.31742177  0.64341737    -0.80000
O391        O  0.85451182  0.16735310  0.71114294    -0.88600
C392        C  0.81291832  0.26261833  0.71414885     0.87400
Mg393      Mg  0.82241656  0.12506156  0.69644463     1.58100
O394        O  0.82950329  0.22360266  0.79308304    -0.88400
O395        O  0.88754142  0.18592027  0.75156505    -0.75700
C396        C  0.69013139  0.12849121  0.79722315     0.92500
O397        O  0.79531095  0.19744602  0.66342642    -0.75500
O398        O  0.69992092  0.11903521  0.76787940    -0.83000
Mg399      Mg  0.85142410  0.20962019  0.67619204     1.58000
C400        C  0.75201382  0.23510312  0.86719377     0.92400
O401        O  0.90697215  0.22774641  0.68077851    -0.81300
H402        H  0.86187798  0.20740157  0.82870849    -0.06600
C403        C  0.73034772  0.21745252  0.76285899     0.87300
O404        O  0.81694204  0.10915204  0.75318763    -0.75800
O405        O  0.83527405  0.24100022  0.71834273    -0.88500
O406        O  0.77710059  0.24852687  0.85191823    -0.81400
C407        C  0.84792048  0.30958919  0.80038126     0.92500
C408        C  0.92158387  0.25159257  0.69727871     0.92300
Mg409      Mg  0.76017416  0.17137465  0.81675562     1.58000
O410        O  0.70518487  0.15243610  0.81307568    -0.81300
O411        O  0.81558332  0.18468318  0.82986131    -0.75500
O412        O  0.86016842  0.29709195  0.77310760    -0.81400
O413        O  0.87126210  0.17361272  0.63536258    -0.83100
O414        O  0.75286405  0.08441478  0.72251168    -0.81400
C415        C  0.83686994  0.20555393  0.81761948     0.86800
O416        O  0.77629277  0.14091025  0.77417208    -0.88500
O417        O  0.75509147  0.21331665  0.78157918    -0.88600
O418        O  0.72103653  0.19434022  0.74225724    -0.75700
Mg419      Mg  0.86997439  0.24111789  0.76083497     1.58000
O420        O  0.82016379  0.29870036  0.81234687    -0.83100
H421        H  0.89130736  0.13855466  0.73095730    -0.06800
O422        O  0.78013113  0.15869799  0.70012444    -0.88300
H423        H  0.74799367  0.17686176  0.66519092    -0.06600
H424        H  0.80082508  0.10648201  0.80242860    -0.06800
C425        C  0.77318962  0.17750716  0.67597052     0.86800
C426        C  0.87836963  0.16280214  0.73089162     0.87300
C427        C  0.79794003  0.11844783  0.77781109     0.87400
H428        H  0.71679340  0.24135098  0.76358939    -0.06800
O429        O  0.79268767  0.27089789  0.73808363    -0.75800
Mg430      Mg  0.74038618  0.13983444  0.73291909     1.58000
H431        H  0.81020348  0.27442772  0.68943256    -0.06800
C432        C  0.85842203  0.14503295  0.62737366     0.92400
O433        O  0.78672534  0.08302416  0.67808837    -0.83000
C434        C  0.76109852  0.07168414  0.69400425     0.92400
O435        O  0.91108068  0.26054421  0.72649290    -0.83000
Mg436      Mg  0.78616673  0.25627625  0.79489385     1.58200
O437        O  0.83010682  0.13633989  0.64001605    -0.81300
O438        O  0.74109174  0.20592540  0.85864069    -0.83000
C439        C  0.66936122  0.90748464  0.63770953     0.79900
N440        N  0.68402462  0.93652219  0.64844472    -0.78400
C441        C  0.67789257  0.96655402  0.63308587     0.82400
N442        N  0.65615237  0.96763052  0.60607427    -0.78300
C443        C  0.64114236  0.93829000  0.59471970     0.82500
N444        N  0.64812005  0.90812391  0.61045344    -0.80000
O445        O  0.83104142  0.74050602  0.71813060    -0.88600
C446        C  0.73622240  0.69752141  0.72029921     0.87400
Mg447      Mg  0.87410865  0.71089086  0.70201093     1.58100
O448        O  0.77738920  0.71188524  0.79891131    -0.88400
O449        O  0.81152240  0.77340993  0.75835020    -0.75700
C450        C  0.87256269  0.57421866  0.79485936     0.92500
O451        O  0.80254200  0.68229799  0.66716189    -0.75500
O452        O  0.88395417  0.58579980  0.76698898    -0.83000
Mg453      Mg  0.78923030  0.73746972  0.68316175     1.58000
C454        C  0.76578775  0.62911712  0.86733538     0.92400
O455        O  0.77139821  0.79236404  0.69198167    -0.81300
H456        H  0.79495152  0.74241409  0.83582701    -0.06600
C457        C  0.78350400  0.61459447  0.76176185     0.87300
O458        O  0.88997763  0.70283810  0.75841521    -0.75800
O459        O  0.75887009  0.71871545  0.72511015    -0.88500
O460        O  0.75548854  0.65728256  0.85549651    -0.81400
C461        C  0.69258682  0.72938662  0.81008939     0.92500
C462        C  0.74398198  0.80298645  0.70540835     0.92300
Mg463      Mg  0.82870844  0.64014408  0.81736243     1.58000
O464        O  0.84482973  0.58508761  0.80725277    -0.81300
O465        O  0.81635669  0.69530835  0.83448976    -0.75500
O466        O  0.70265547  0.73977336  0.78116577    -0.81400
O467        O  0.82408533  0.75987312  0.64232100    -0.83100
O468        O  0.91667849  0.64074078  0.72325577    -0.81400
C469        C  0.79604331  0.71782145  0.82344845     0.86800
O470        O  0.85946737  0.65989722  0.77643858    -0.88500
O471        O  0.78721437  0.63843714  0.78198274    -0.88600
O472        O  0.80726403  0.60589999  0.74160910    -0.75700
Mg473      Mg  0.75750749  0.75279995  0.76825657     1.58000
O474        O  0.70337443  0.70129865  0.82135147    -0.83100
H475        H  0.85841592  0.77887584  0.73740576    -0.06800
O476        O  0.84216186  0.66695541  0.70258809    -0.88300
H477        H  0.82504857  0.63573651  0.66606374    -0.06600
H478        H  0.89300441  0.68366835  0.80647837    -0.06800
C479        C  0.82351289  0.66042476  0.67820159     0.86800
C480        C  0.83483054  0.76483939  0.73768650     0.87300
C481        C  0.88123336  0.68197869  0.78165791     0.87400
H482        H  0.75968504  0.60098038  0.76113580    -0.06800
O483        O  0.72734823  0.67693702  0.74368359    -0.75800
Mg484      Mg  0.86174204  0.62628509  0.73334838     1.58000
H485        H  0.72376390  0.69642838  0.69578880    -0.06800
C486        C  0.85288362  0.74843362  0.63341777     0.92400
O487        O  0.91678378  0.67814009  0.68195662    -0.83000
C488        C  0.92824567  0.65099657  0.69495410     0.92400
O489        O  0.73436470  0.79227283  0.73431962    -0.83000
Mg490      Mg  0.74466531  0.66819447  0.79950054     1.58200
O491        O  0.86341069  0.72060291  0.64585891    -0.81300
O492        O  0.79387031  0.61692979  0.85740172    -0.83000
C493        C  0.43700448  0.56170687  0.96756131     0.79900
N494        N  0.46037507  0.53624222  0.96661297    -0.78400
C495        C  0.47414520  0.52467365  0.99635877     0.82400
N496        N  0.46416803  0.53856797  0.02674525    -0.78300
C497        C  0.44096998  0.56418205  0.02715244     0.82500
N498        N  0.42766949  0.57534657  0.99766015    -0.80000
C499        C  0.68825571  0.31138674  0.97441221     0.79900
N500        N  0.66388186  0.33583007  0.97448161    -0.78400
C501        C  0.65013770  0.34640092  0.00468923     0.82400
N502        N  0.66049238  0.33196268  0.03457268    -0.78300
C503        C  0.68445658  0.30704788  0.03392640     0.82500
N504        N  0.69793364  0.29713719  0.00395240    -0.80000
C505        C  0.68724756  0.56270732  0.97131142     0.79900
N506        N  0.69939838  0.57452374  0.00114493    -0.78400
C507        C  0.68830606  0.56216110  0.03112684     0.82400
N508        N  0.66419298  0.53734772  0.03161563    -0.78300
C509        C  0.65169218  0.52490154  0.00158499     0.82500
N510        N  0.66338704  0.53759575  0.97129897    -0.80000
C511        C  0.53630733  0.07248529  0.12204413     0.79900
N512        N  0.53629871  0.04633240  0.09930959    -0.78400
C513        C  0.56620997  0.03157289  0.08989957     0.82400
N514        N  0.59607527  0.04300233  0.10351709    -0.78300
C515        C  0.59559034  0.06934420  0.12620328     0.82500
N516        N  0.56583313  0.08356490  0.13498204    -0.80000
C517        C  0.18452877  0.40643975  0.11876273     0.79900
N518        N  0.15927752  0.40767388  0.09534348    -0.78400
C519        C  0.14764657  0.43847274  0.08441995     0.82400
N520        N  0.16150504  0.46788090  0.09708718    -0.78300
C521        C  0.18682237  0.46620739  0.12072469     0.82500
N522        N  0.19781228  0.43546746  0.13103844    -0.80000
C523        C  0.18565311  0.07128942  0.52188121     0.79900
N524        N  0.19693499  0.08017641  0.49081147    -0.78400
C525        C  0.18578606  0.06465571  0.46242337     0.82400
N526        N  0.16238468  0.03929673  0.46473619    -0.78300
C527        C  0.15066305  0.02975755  0.49614797     0.82500
N528        N  0.16229176  0.04591534  0.52475560    -0.80000
N529        N  0.11547179  0.94073461  0.50460742    -0.36900
N530        N  0.06335665  0.88753536  0.50497380    -0.57500
N531        N  0.01062552  0.94021582  0.50562570    -0.36900
N532        N  0.06249927  0.99325496  0.50183974    -0.57500
C533        C  0.13469128  0.91269971  0.49870896     0.26700
C534        C  0.13420741  0.96838043  0.49590109     0.26700
C535        C  0.99129543  0.91211972  0.50032596     0.26700
C536        C  0.99086454  0.96789165  0.50000926     0.26700
C537        C  0.09103586  0.86776972  0.50993905     0.35300
C538        C  0.03579834  0.86741457  0.50943244     0.35300
C539        C  0.09012668  0.01356221  0.50443361     0.35300
C540        C  0.03496680  0.01338683  0.50635557     0.35300
C541        C  0.16623656  0.92276339  0.48665606    -0.22200
C542        C  0.16591942  0.95775966  0.48486285    -0.22200
C543        C  0.95871777  0.92214660  0.49167321    -0.22200
C544        C  0.95843212  0.95718108  0.49154624    -0.22200
C545        C  0.08101001  0.83476551  0.51731905    -0.23200
C546        C  0.04609933  0.83452182  0.51693666    -0.23200
C547        C  0.08001847  0.04691036  0.51017220    -0.23200
C548        C  0.04516532  0.04677642  0.51145915    -0.23200
C549        C  0.12510491  0.87838679  0.50506343    -0.18600
C550        C  0.12414838  0.00296490  0.49918663    -0.18600
C551        C  0.00074838  0.00252346  0.50369162    -0.18600
C552        C  0.00158087  0.87773323  0.50476473    -0.18600
H553        H  0.18743420  0.90662797  0.47989521     0.14300
H554        H  0.18683190  0.97354244  0.47651432     0.14300
H555        H  0.93716379  0.90594462  0.48632693     0.14300
H556        H  0.93664198  0.97293026  0.48601536     0.14300
H557        H  0.09715565  0.81298574  0.52188347     0.12600
H558        H  0.03015449  0.81250898  0.52125556     0.12600
H559        H  0.09601799  0.06916498  0.51265795     0.12600
H560        H  0.02916222  0.06885272  0.51515651     0.12600
H561        H  0.09162206  0.94105837  0.51559052     0.25900
H562        H  0.03532635  0.94050574  0.51425447     0.25900
N563        N  0.56498294  0.94085105  0.05763093    -0.36900
N564        N  0.56200211  0.99170127  0.00247536    -0.57500
N565        N  0.56271300  0.93668781  0.95194909    -0.36900
N566        N  0.56165897  0.88583295  0.00716444    -0.57500
C567        C  0.56247588  0.96974068  0.07641101     0.26700
C568        C  0.56027731  0.91400535  0.07883758     0.26700
C569        C  0.55600507  0.96353381  0.93129796     0.26700
C570        C  0.55807976  0.90777508  0.93358799     0.26700
C571        C  0.56675182  0.01302138  0.02923864     0.35300
C572        C  0.56341351  0.01087515  0.97381031     0.35300
C573        C  0.56419951  0.86665157  0.03574351     0.35300
C574        C  0.56525406  0.86450040  0.98021311     0.35300
C575        C  0.55661962  0.96111721  0.11021806    -0.22200
C576        C  0.55518883  0.92610836  0.11173217    -0.22200
C577        C  0.54739086  0.95139564  0.89919195    -0.22200
C578        C  0.54879304  0.91637104  0.90060583    -0.22200
C579        C  0.57078038  0.04605847  0.01744152    -0.23200
C580        C  0.56860445  0.04470623  0.98246402    -0.23200
C581        C  0.56881045  0.83280050  0.02683771    -0.23200
C582        C  0.56961552  0.83145559  0.99180006    -0.23200
C583        C  0.56596774  0.00367308  0.06426132    -0.18600
C584        C  0.56159738  0.87888495  0.06979954    -0.18600
C585        C  0.56298710  0.87386951  0.94528466    -0.18600
C586        C  0.55874345  0.99866564  0.94000403    -0.18600
H587        H  0.55367668  0.97825418  0.13167503     0.14300
H588        H  0.55105448  0.91128379  0.13459592     0.14300
H589        H  0.54095999  0.96620468  0.87688870     0.14300
H590        H  0.54352069  0.89920413  0.87964733     0.14300
H591        H  0.57462932  0.06887141  0.03247902     0.12600
H592        H  0.57050419  0.06623209  0.96538581     0.12600
H593        H  0.57136532  0.81126405  0.04379921     0.12600
H594        H  0.57269063  0.80862847  0.97660236     0.12600
H595        H  0.57076490  0.93964088  0.03201082     0.25900
H596        H  0.57154015  0.93790048  0.97669406     0.25900
N597        N  0.05886406  0.43596680  0.04864165    -0.36900
N598        N  0.00574622  0.43445405  0.99593618    -0.57500
N599        N  0.05829134  0.43419892  0.94278263    -0.36900
N600        N  0.11119117  0.43913452  0.99549886    -0.57500
C601        C  0.03103002  0.43980253  0.06860281     0.26700
C602        C  0.08659790  0.44153114  0.06828718     0.26700
C603        C  0.03034912  0.43700625  0.92290792     0.26700
C604        C  0.08591335  0.43891208  0.92271220     0.26700
C605        C  0.98570532  0.43222136  0.02394736     0.35300
C606        C  0.98537907  0.43125852  0.96829914     0.35300
C607        C  0.13166061  0.43714542  0.02310700     0.35300
C608        C  0.13133995  0.43644213  0.96765121     0.35300
C609        C  0.04133630  0.44741091  0.10159829    -0.22200
C610        C  0.07625151  0.44843394  0.10139682    -0.22200
C611        C  0.04053178  0.44285028  0.88948771    -0.22200
C612        C  0.07541312  0.44410830  0.88940247    -0.22200
C613        C  0.95225640  0.42786512  0.01398452    -0.23200
C614        C  0.95204129  0.42733379  0.97889542    -0.23200
C615        C  0.16509304  0.43365530  0.01266939    -0.23200
C616        C  0.16490044  0.43325946  0.97766439    -0.23200
C617        C  0.99662042  0.43579766  0.05835674    -0.18600
C618        C  0.12101429  0.43950367  0.05764079    -0.18600
C619        C  0.12038281  0.43792617  0.93323463    -0.18600
C620        C  0.99595471  0.43376041  0.93365346    -0.18600
H621        H  0.02539026  0.45172670  0.12367315     0.14300
H622        H  0.09219128  0.45370226  0.12322279     0.14300
H623        H  0.02459035  0.44578800  0.86726227     0.14300
H624        H  0.09122659  0.44832262  0.86722293     0.14300
H625        H  0.93017566  0.42577678  0.03027754     0.12600
H626        H  0.92975265  0.42479381  0.96303978     0.12600
H627        H  0.18739576  0.43178289  0.02858851     0.12600
H628        H  0.18702818  0.43094768  0.96145219     0.12600
H629        H  0.05895335  0.42862937  0.02338945     0.25900
H630        H  0.05859462  0.42840164  0.96838341     0.25900
N631        N  0.61485269  0.43582459  0.00456261    -0.36900
N632        N  0.56290042  0.48862753  0.99827573    -0.57500
N633        N  0.50980923  0.43559913  0.99798521    -0.36900
N634        N  0.56188506  0.38274474  0.00068416    -0.57500
C635        C  0.63513655  0.46351398  0.00106563     0.26700
C636        C  0.63462013  0.40771898  0.00231956     0.26700
C637        C  0.49080853  0.46353013  0.99132382     0.26700
C638        C  0.49042454  0.40766861  0.99195456     0.26700
C639        C  0.59036841  0.50898852  0.00247946     0.35300
C640        C  0.53515163  0.50885671  0.00007857     0.35300
C641        C  0.58921862  0.36260940  0.00594709     0.35300
C642        C  0.53409675  0.36251586  0.00260921     0.35300
C643        C  0.66843839  0.45280948  0.99730224    -0.22200
C644        C  0.66812319  0.41775997  0.99807934    -0.22200
C645        C  0.45869839  0.45319231  0.98121765    -0.22200
C646        C  0.45847914  0.41808866  0.98154621    -0.22200
C647        C  0.57998576  0.54247450  0.00636744    -0.23200
C648        C  0.54516075  0.54239537  0.00493211    -0.23200
C649        C  0.57868120  0.32926062  0.01079069    -0.23200
C650        C  0.54389514  0.32921616  0.00875194    -0.23200
C651        C  0.62477488  0.49819109  0.00188282    -0.18600
C652        C  0.62366382  0.37327089  0.00481258    -0.18600
C653        C  0.50013643  0.37313857  0.99707835    -0.18600
C654        C  0.50097012  0.49803527  0.99581365    -0.18600
H655        H  0.69075308  0.46858885  0.99433605     0.14300
H656        H  0.69019516  0.40155081  0.99586505     0.14300
H657        H  0.43744579  0.46923009  0.97453218     0.14300
H658        H  0.43702864  0.40210976  0.97518535     0.14300
H659        H  0.59583802  0.56471028  0.00985988     0.12600
H660        H  0.52909625  0.56464054  0.00687286     0.12600
H661        H  0.59441166  0.30713852  0.01512119     0.12600
H662        H  0.52772031  0.30707477  0.01113729     0.12600
H663        H  0.58911564  0.43600963  0.00917698     0.25900
H664        H  0.53402577  0.43574857  0.00794819     0.25900
N665        N  0.05888196  0.44805921  0.55039238    -0.36900
N666        N  0.05694203  0.49922901  0.49613186    -0.57500
N667        N  0.05911967  0.44450663  0.44479131    -0.36900
N668        N  0.05724457  0.39321139  0.49900789    -0.57500
C669        C  0.05484683  0.47661347  0.56950146     0.26700
C670        C  0.05427127  0.42079497  0.57101481     0.26700
C671        C  0.05276686  0.47175985  0.42458433     0.26700
C672        C  0.05361674  0.41591713  0.42608005     0.26700
C673        C  0.06106156  0.52031638  0.52321127     0.35300
C674        C  0.06037095  0.51848461  0.46771758     0.35300
C675        C  0.06102245  0.37406992  0.52745625     0.35300
C676        C  0.06187300  0.37224512  0.47188577     0.35300
C677        C  0.04800916  0.46731836  0.60292476    -0.22200
C678        C  0.04761603  0.43225498  0.60387929    -0.22200
C679        C  0.04341262  0.46028349  0.39246520    -0.22200
C680        C  0.04392948  0.42519392  0.39340417    -0.22200
C681        C  0.06653213  0.55328180  0.51186377    -0.23200
C682        C  0.06612718  0.55211624  0.47684145    -0.23200
C683        C  0.06761608  0.34059757  0.51830111    -0.23200
C684        C  0.06821866  0.33945851  0.48321447    -0.23200
C685        C  0.05844668  0.51079172  0.55805441    -0.18600
C686        C  0.05739096  0.38589970  0.56157561    -0.18600
C687        C  0.05857314  0.38175237  0.43708117    -0.18600
C688        C  0.05684385  0.50664661  0.43365235    -0.18600
H689        H  0.04396471  0.48402733  0.62453294     0.14300
H690        H  0.04325076  0.41697317  0.62639675     0.14300
H691        H  0.03705005  0.47559150  0.37048517     0.14300
H692        H  0.03801749  0.40844090  0.37228185     0.14300
H693        H  0.07019280  0.57593432  0.52718965     0.12600
H694        H  0.06934077  0.57369708  0.46004508     0.12600
H695        H  0.07149974  0.31916603  0.53514006     0.12600
H696        H  0.07253956  0.31696530  0.46781869     0.12600
H697        H  0.06585311  0.44718950  0.52502656     0.25900
H698        H  0.06857879  0.44538680  0.46936132     0.25900
N699        N  0.60698801  0.93682582  0.50435246    -0.36900
N700        N  0.55366987  0.94116076  0.55610904    -0.57500
N701        N  0.50219262  0.94393509  0.50178949    -0.36900
N702        N  0.55541068  0.94057159  0.44983573    -0.57500
C703        C  0.62613412  0.94203454  0.53267145     0.26700
C704        C  0.62711752  0.94179373  0.47672710     0.26700
C705        C  0.48152657  0.94501383  0.52940327     0.26700
C706        C  0.48251449  0.94468000  0.47348090     0.26700
C707        C  0.58060498  0.93785441  0.57718253     0.35300
C708        C  0.52552085  0.94022961  0.57585974     0.35300
C709        C  0.58339033  0.93710640  0.43013126     0.35300
C710        C  0.52822000  0.93968064  0.42877840     0.35300
C711        C  0.65903601  0.94965099  0.52286740    -0.22200
C712        C  0.65967787  0.94950352  0.48775427    -0.22200
C713        C  0.44814069  0.94691676  0.51844758    -0.22200
C714        C  0.44875910  0.94674635  0.48334502    -0.22200
C715        C  0.56947941  0.93514996  0.61062969    -0.23200
C716        C  0.53474614  0.93673074  0.60980821    -0.23200
C717        C  0.57387961  0.93428845  0.39617699    -0.23200
C718        C  0.53906257  0.93589361  0.39534099    -0.23200
C719        C  0.61516011  0.93924083  0.56713760    -0.18600
C720        C  0.61744684  0.93864791  0.44185168    -0.18600
C721        C  0.49372298  0.94246482  0.43899084    -0.18600
C722        C  0.49153865  0.94300787  0.56420710    -0.18600
H723        H  0.68044940  0.95487520  0.53927366     0.14300
H724        H  0.68178398  0.95454377  0.47219385     0.14300
H725        H  0.42551503  0.94775383  0.53407919     0.14300
H726        H  0.42669852  0.94751009  0.46698554     0.14300
H727        H  0.58474953  0.93284191  0.63340671     0.12600
H728        H  0.51823019  0.93568081  0.63184954     0.12600
H729        H  0.59028931  0.93182785  0.37416328     0.12600
H730        H  0.52353560  0.93459616  0.37264310     0.12600
H731        H  0.58199735  0.92885793  0.50380974     0.25900
H732        H  0.52819975  0.94213584  0.50234509     0.25900
C733        C  0.72199334  0.62985173  0.91285476    -0.20600
C734        C  0.74424277  0.61069845  0.89248377    -0.07200
C735        C  0.74292954  0.57458573  0.89449634     0.13700
C736        C  0.72123587  0.55900343  0.91840111    -0.20600
C737        C  0.70065255  0.57848744  0.94002021    -0.07200
C738        C  0.70025242  0.61430950  0.93639401     0.13700
C739        C  0.67745750  0.63700244  0.95740725    -0.24000
H740        H  0.72188310  0.65735756  0.91087192     0.15000
H741        H  0.72171697  0.53159543  0.92152073     0.15000
C742        C  0.76391272  0.55216138  0.87148110    -0.23900
H743        H  0.69311250  0.65423073  0.97343503     0.05200
H744        H  0.66151277  0.65260210  0.94016972     0.08500
H745        H  0.66004543  0.62255787  0.97424327     0.08500
H746        H  0.79121795  0.55595231  0.87687100     0.08400
H747        H  0.75854235  0.55825357  0.84438675     0.08400
H748        H  0.75820833  0.52475758  0.87542305     0.05200
C749        C  0.69991790  0.85311344  0.63483956    -0.20600
C750        C  0.68039922  0.87577996  0.65408879    -0.07200
C751        C  0.67915440  0.87231024  0.68992522     0.13700
C752        C  0.70000330  0.84828573  0.70588608    -0.20600
C753        C  0.72217946  0.82762603  0.68690723    -0.07200
C754        C  0.72059897  0.82880910  0.65071162     0.13700
C755        C  0.74021844  0.80451105  0.62845544    -0.24000
H756        H  0.70058189  0.85581909  0.60733462     0.15000
H757        H  0.69957564  0.84630666  0.73344854     0.15000
C758        C  0.65591739  0.89406128  0.71139347    -0.23900
H759        H  0.73458898  0.80819162  0.60096534     0.05200
H760        H  0.73364527  0.77785935  0.63514356     0.08500
H761        H  0.76766377  0.80876998  0.63202862     0.08500
H762        H  0.62939806  0.89094085  0.70246562     0.08400
H763        H  0.66323407  0.92122976  0.70958442     0.08400
H764        H  0.65685440  0.88676765  0.73873091     0.05200
C765        C  0.68388833  0.27505959  0.92360540    -0.20600
C766        C  0.70332168  0.29758851  0.94310994    -0.07200
C767        C  0.73863665  0.29971333  0.93762301     0.13700
C768        C  0.75382869  0.27877294  0.91298998    -0.20600
C769        C  0.73473489  0.25495904  0.89434549    -0.07200
C770        C  0.69907542  0.25353497  0.89937074     0.13700
C771        C  0.67662830  0.22983495  0.87918177    -0.24000
H772        H  0.65692620  0.27303866  0.92866194     0.15000
H773        H  0.78092991  0.28058952  0.90872605     0.15000
C774        C  0.76037227  0.32387876  0.95804901    -0.23900
H775        H  0.64941200  0.23337586  0.88557314     0.05200
H776        H  0.68316214  0.20298021  0.88491060     0.08500
H777        H  0.67974925  0.23475871  0.85148241     0.08500
H778        H  0.75959358  0.31705522  0.98547803     0.08400
H779        H  0.75093739  0.35029219  0.95483961     0.08400
H780        H  0.78728372  0.32314469  0.94969130     0.05200
C781        C  0.73599639  0.04341072  0.64288865    -0.20600
C782        C  0.73946553  0.04469055  0.67865477    -0.07200
C783        C  0.72025239  0.02188264  0.69885880     0.13700
C784        C  0.69855698  0.99859455  0.68286282    -0.20600
C785        C  0.69554281  0.99679669  0.64719667    -0.07200
C786        C  0.71432010  0.01971254  0.62691826     0.13700
C787        C  0.71266729  0.01836702  0.58858548    -0.24000
H788        H  0.75023226  0.06115037  0.62730341     0.15000
H789        H  0.68442370  0.98076777  0.69844514     0.15000
C790        C  0.72345193  0.02057838  0.73720171    -0.23900
H791        H  0.72957687  0.03760420  0.57668456     0.05200
H792        H  0.68637167  0.02352212  0.58001024     0.08500
H793        H  0.72064729  0.99282769  0.57944366     0.08500
H794        H  0.71350121  0.04428965  0.74885276     0.08400
H795        H  0.75043664  0.01706176  0.74438652     0.08400
H796        H  0.70879030  0.99912821  0.74829102     0.05200
C797        C  0.99334353  0.31505067  0.67992438    -0.20600
C798        C  0.99763658  0.31123063  0.64465320    -0.07200
C799        C  0.97785231  0.28722313  0.62694575     0.13700
C800        C  0.95412000  0.26751899  0.64501453    -0.20600
C801        C  0.94955549  0.27117540  0.68056561    -0.07200
C802        C  0.96957903  0.29569841  0.69815699     0.13700
C803        C  0.96687397  0.30168158  0.73609253    -0.24000
H804        H  0.00949057  0.33288337  0.69346592     0.15000
H805        H  0.93888843  0.24927307  0.63104593     0.15000
C806        C  0.98271254  0.28147187  0.58926365    -0.23900
H807        H  0.98612904  0.32015322  0.74535016     0.05200
H808        H  0.97088791  0.27745045  0.75001858     0.08500
H809        H  0.94166746  0.31250554  0.74238469     0.08500
H810        H  0.00924057  0.27353856  0.58405582     0.08400
H811        H  0.97728549  0.30536198  0.57524278     0.08400
H812        H  0.96555699  0.26132714  0.57937579     0.05200
C813        C  0.95961998  0.63857174  0.64125100    -0.20600
C814        C  0.95353163  0.63026147  0.67570346    -0.07200
C815        C  0.96982734  0.60115007  0.68960924     0.13700
C816        C  0.99157024  0.58180558  0.66891843    -0.20600
C817        C  0.99792672  0.59071068  0.63500876    -0.07200
C818        C  0.98196366  0.61946125  0.62099534     0.13700
C819        C  0.98963307  0.63074120  0.58508832    -0.24000
H820        H  0.94720867  0.66044272  0.63004721     0.15000
H821        H  0.00526027  0.56051526  0.67980007     0.15000
C822        C  0.96572478  0.59056202  0.72632811    -0.23900
H823        H  0.97494009  0.65376015  0.57798528     0.05200
H824        H  0.98310968  0.61002738  0.56694355     0.08500
H825        H  0.01700288  0.63687667  0.58256121     0.08500
H826        H  0.93924022  0.58245683  0.73105822     0.08400
H827        H  0.97266025  0.61197719  0.74348479     0.08400
H828        H  0.98223064  0.56865107  0.73290699     0.05200
C829        C  0.40674549  0.62595503  0.90439484    -0.20600
C830        C  0.37553488  0.61168326  0.89427805    -0.07200
C831        C  0.36773269  0.57787712  0.90482677     0.13700
C832        C  0.39043469  0.56044837  0.92617815    -0.20600
C833        C  0.42068077  0.57552652  0.93704949    -0.07200
C834        C  0.42917363  0.60840960  0.92569472     0.13700
C835        C  0.46160583  0.62537743  0.93691926    -0.24000
H836        H  0.41360380  0.65131550  0.89607857     0.15000
H837        H  0.38373265  0.53553272  0.93596058     0.15000
C838        C  0.33560989  0.55979096  0.89441925    -0.23900
H839        H  0.46481076  0.65086991  0.92516035     0.05200
H840        H  0.48358140  0.60938237  0.92938690     0.08500
H841        H  0.46162230  0.62873856  0.96500795     0.08500
H842        H  0.33478638  0.55699092  0.86626292     0.08400
H843        H  0.31315874  0.57421007  0.90355529     0.08400
H844        H  0.33401763  0.53381778  0.90543331     0.05200
C845        C  0.14665990  0.64713918  0.65076562    -0.20600
C846        C  0.16817572  0.62793304  0.67170887    -0.07200
C847        C  0.16643457  0.59177470  0.66989484     0.13700
C848        C  0.14160148  0.57619804  0.64939772    -0.20600
C849        C  0.11890467  0.59566645  0.63028823    -0.07200
C850        C  0.12212935  0.63153716  0.63015894     0.13700
C851        C  0.09979007  0.65355054  0.60812475    -0.24000
H852        H  0.14864015  0.67465870  0.65088461     0.15000
H853        H  0.13891202  0.54872935  0.64945396     0.15000
C854        C  0.19096327  0.56922336  0.68868476    -0.23900
H855        H  0.10750663  0.68072952  0.60920361     0.05200
H856        H  0.07305200  0.65211947  0.61673532     0.08500
H857        H  0.10156496  0.64500114  0.58117287     0.08500
H858        H  0.18765260  0.57244161  0.71651932     0.08400
H859        H  0.21737361  0.57572870  0.68131858     0.08400
H860        H  0.18685033  0.54186978  0.68274481     0.05200
C861        C  0.43100644  0.87799619  0.68310517    -0.20600
C862        C  0.42195469  0.88103801  0.64875050    -0.07200
C863        C  0.39646244  0.86003231  0.63519256     0.13700
C864        C  0.37954595  0.83721165  0.65674342    -0.20600
C865        C  0.38741998  0.83484170  0.69174471    -0.07200
C866        C  0.41448988  0.85489410  0.70478922     0.13700
C867        C  0.42575000  0.85315130  0.74148493    -0.24000
H868        H  0.45020948  0.89493417  0.69333232     0.15000
H869        H  0.35979801  0.82130415  0.64606484     0.15000
C870        C  0.38623811  0.86273827  0.59828042    -0.23900
H871        H  0.44626082  0.87172188  0.74709703     0.05200
H872        H  0.43590094  0.82744452  0.74717260     0.08500
H873        H  0.40412619  0.85902776  0.75866192     0.08500
H874        H  0.40846919  0.85734876  0.58172720     0.08400
H875        H  0.37679979  0.88878573  0.59285967     0.08400
H876        H  0.36586747  0.84437455  0.59166853     0.05200
C877        C  0.22991955  0.09442972  0.60449134    -0.20600
C878        C  0.23644121  0.12928176  0.59909729    -0.07200
C879        C  0.22413695  0.14503916  0.56933369     0.13700
C880        C  0.20539852  0.12566129  0.54602125    -0.20600
C881        C  0.19926367  0.09069901  0.55110897    -0.07200
C882        C  0.21167469  0.07487819  0.58076266     0.13700
C883        C  0.20720773  0.03728028  0.58674127    -0.24000
H884        H  0.23917596  0.08236893  0.62749832     0.15000
H885        H  0.19639252  0.13770998  0.52289510     0.15000
C886        C  0.23223381  0.18159745  0.56096909    -0.23900
H887        H  0.21959777  0.02897921  0.61073071     0.05200
H888        H  0.21869647  0.02270477  0.56535501     0.08500
H889        H  0.17982301  0.03106332  0.58865698     0.08500
H890        H  0.26012829  0.18544211  0.56107411     0.08400
H891        H  0.22028609  0.19884190  0.57983721     0.08400
H892        H  0.22265166  0.18887484  0.53538783     0.05200
C893        C  0.14707694  0.29567579  0.69742927    -0.20600
C894        C  0.16831721  0.27490948  0.67756386    -0.07200
C895        C  0.16534335  0.27599011  0.64141752     0.13700
C896        C  0.14065057  0.29694302  0.62655500    -0.20600
C897        C  0.11883840  0.31656136  0.64669064    -0.07200
C898        C  0.12260833  0.31654027  0.68253425     0.13700
C899        C  0.10114561  0.33821198  0.70591072    -0.24000
H900        H  0.14947368  0.29571611  0.72497398     0.15000
H901        H  0.13708334  0.29658545  0.59914292     0.15000
C902        C  0.18779633  0.25535740  0.61808149    -0.23900
H903        H  0.11786938  0.35424307  0.72209639     0.05200
H904        H  0.08560187  0.32158109  0.72264320     0.08500
H905        H  0.08403228  0.35563290  0.69192950     0.08500
H906        H  0.18349690  0.22780838  0.62255773     0.08400
H907        H  0.21481201  0.26185991  0.62262817     0.08400
H908        H  0.18234108  0.26035663  0.59076757     0.05200
C909        C  0.37191595  0.00320251  0.62978586    -0.20600
C910        C  0.40658042  0.00112601  0.63701461    -0.07200
C911        C  0.42061310  0.02178634  0.66270869     0.13700
C912        C  0.39932962  0.04344256  0.68144647    -0.20600
C913        C  0.36420577  0.04493560  0.67513612    -0.07200
C914        C  0.35050200  0.02511240  0.64810968     0.13700
C915        C  0.31337574  0.02578136  0.63886736    -0.24000
H916        H  0.36132590  0.98643104  0.61054156     0.15000
H917        H  0.41032825  0.05934665  0.70114510     0.15000
C918        C  0.45781477  0.01998700  0.67116680    -0.23900
H919        H  0.30717087  0.00683377  0.61874928     0.05200
H920        H  0.30638627  0.05116761  0.62872261     0.08500
H921        H  0.29771784  0.01974560  0.66161672     0.08500
H922        H  0.47301107  0.02654191  0.64824233     0.08400
H923        H  0.46448068  0.99387132  0.67956926     0.08400
H924        H  0.46473061  0.03798199  0.69190794     0.05200
C925        C  0.39072634  0.30831790  0.92337502    -0.20600
C926        C  0.42324759  0.29682855  0.93176130    -0.07200
C927        C  0.43497625  0.26583962  0.91816451     0.13700
C928        C  0.41356342  0.24650816  0.89718712    -0.20600
C929        C  0.38021457  0.25705074  0.88978947    -0.07200
C930        C  0.36901951  0.28906119  0.90252849     0.13700
C931        C  0.33414843  0.30301381  0.89544474    -0.24000
H932        H  0.38149050  0.33158304  0.93507719     0.15000
H933        H  0.42293656  0.22262801  0.88702578     0.15000
C934        C  0.46959299  0.25243268  0.92716742    -0.23900
H935        H  0.32953867  0.32746481  0.90895805     0.05200
H936        H  0.31449129  0.28469438  0.90405723     0.08500
H937        H  0.33146325  0.30809003  0.86779865     0.08500
H938        H  0.47135170  0.24825162  0.95509957     0.08400
H939        H  0.48920864  0.27113380  0.91931962     0.08400
H940        H  0.47503844  0.22787381  0.91418278     0.05200
C941        C  0.74848332  0.58431774  0.10192058    -0.20600
C942        C  0.74076488  0.61898210  0.10697871    -0.07200
C943        C  0.71226587  0.63294292  0.09000205     0.13700
C944        C  0.69346851  0.61225034  0.06773933    -0.20600
C945        C  0.70201855  0.57806372  0.06205547    -0.07200
C946        C  0.72973360  0.56381614  0.07956225     0.13700
C947        C  0.74116617  0.52759353  0.07418014    -0.24000
H948        H  0.76956413  0.57295352  0.11533653     0.15000
H949        H  0.67282305  0.62326922  0.05325736     0.15000
C950        C  0.70205059  0.66974973  0.09386726    -0.23900
H951        H  0.76748979  0.52744036  0.06408128     0.05200
H952        H  0.72484157  0.51338829  0.05609629     0.08500
H953        H  0.74073411  0.51389735  0.09891484     0.08500
H954        H  0.72371449  0.68656046  0.08725262     0.08400
H955        H  0.69363315  0.67479045  0.12040790     0.08400
H956        H  0.68060483  0.67647534  0.07685238     0.05200
C957        C  0.96251124  0.63295870  0.34862817    -0.20600
C958        C  0.95854103  0.62895057  0.31307850    -0.07200
C959        C  0.97616055  0.60203021  0.29654383     0.13700
C960        C  0.99738816  0.58076044  0.31574487    -0.20600
C961        C  0.00159436  0.58528141  0.35095422    -0.07200
C962        C  0.98399550  0.61169309  0.36761251     0.13700
C963        C  0.98918321  0.61847454  0.40507406    -0.24000
H964        H  0.94890634  0.65302830  0.36176478     0.15000
H965        H  0.01206913  0.56119692  0.30293004     0.15000
C966        C  0.97397477  0.59598115  0.25861813    -0.23900
H967        H  0.97369692  0.64030876  0.41414248     0.05200
H968        H  0.01625693  0.62445073  0.41003280     0.08500
H969        H  0.98182514  0.59564352  0.41998533     0.08500
H970        H  0.98103775  0.61951794  0.24468159     0.08400
H971        H  0.94792328  0.58801940  0.25166170     0.08400
H972        H  0.99134840  0.57541231  0.25005925     0.05200
C973        C  0.72691376  0.83034432  0.35458157    -0.20600
C974        C  0.73124945  0.83409856  0.31913035    -0.07200
C975        C  0.71408179  0.86067181  0.30209225     0.13700
C976        C  0.69395067  0.88315898  0.32110961    -0.20600
C977        C  0.69068753  0.88010089  0.35664881    -0.07200
C978        C  0.70698679  0.85314887  0.37356445     0.13700
C979        C  0.70490031  0.84951081  0.41173603    -0.24000
H980        H  0.73936424  0.80951446  0.36759454     0.15000
H981        H  0.68203401  0.90451967  0.30841184     0.15000
C982        C  0.71836110  0.86687728  0.26437155    -0.23900
H983        H  0.71961944  0.82726244  0.42090314     0.05200
H984        H  0.67807085  0.84597091  0.41955083     0.08500
H985        H  0.71522723  0.87268103  0.42424823     0.08500
H986        H  0.70735654  0.84555831  0.24949272     0.08400
H987        H  0.74569807  0.86960436  0.25814081     0.08400
H988        H  0.70530575  0.89050159  0.25612710     0.05200
C989        C  0.66874625  0.08361032  0.18636486    -0.20600
C990        C  0.66903610  0.11948750  0.18775845    -0.07200
C991        C  0.64835595  0.13797856  0.16491451     0.13700
C992        C  0.62744033  0.12019181  0.14226483    -0.20600
C993        C  0.62599087  0.08447312  0.14192750    -0.07200
C994        C  0.64741556  0.06587968  0.16369995     0.13700
C995        C  0.64675481  0.02756571  0.16405245    -0.24000
H996        H  0.68518101  0.06934040  0.20320794     0.15000
H997        H  0.61044322  0.13435983  0.12586321     0.15000
C998        C  0.64649586  0.17636037  0.16537056    -0.23900
H999        H  0.66496754  0.01702231  0.18282808     0.05200
H1000       H  0.65369380  0.01767888  0.13843105     0.08500
H1001       H  0.62099029  0.01841650  0.17088449     0.08500
H1002       H  0.67102387  0.18750282  0.15724298     0.08400
H1003       H  0.63999448  0.18539834  0.19142076     0.08400
H1004       H  0.62684006  0.18611163  0.14766283     0.05200
C1005       C  0.73445236  0.28671377  0.11294100    -0.20600
C1006       C  0.73559970  0.25089663  0.11084404    -0.07200
C1007       C  0.71579338  0.23408335  0.08589756     0.13700
C1008       C  0.69656105  0.25352657  0.06315190    -0.20600
C1009       C  0.69649458  0.28922845  0.06449105    -0.07200
C1010       C  0.71511858  0.30607466  0.09003313     0.13700
C1011       C  0.71581570  0.34435489  0.09215963    -0.24000
H1012       H  0.74881357  0.29968378  0.13261377     0.15000
H1013       H  0.68263919  0.24082454  0.04296205     0.15000
C1014       C  0.71610302  0.19590632  0.08167892    -0.23900
H1015       H  0.73201128  0.35342873  0.11346838     0.05200
H1016       H  0.68973855  0.35410692  0.09641967     0.08500
H1017       H  0.72599819  0.35510047  0.06805894     0.08500
H1018       H  0.70464729  0.18347830  0.10427558     0.08400
H1019       H  0.74254991  0.18688437  0.07818899     0.08400
H1020       H  0.70123956  0.18763277  0.05909354     0.05200
C1021       C  0.70736895  0.05001829  0.33823514    -0.20600
C1022       C  0.74289606  0.04694101  0.33591272    -0.07200
C1023       C  0.75936921  0.02073414  0.35418124     0.13700
C1024       C  0.73973577  0.99738054  0.37255123    -0.20600
C1025       C  0.70423889  0.99967496  0.37357661    -0.07200
C1026       C  0.68785762  0.02673379  0.35696441     0.13700
C1027       C  0.64982228  0.03009150  0.35759989    -0.24000
H1028       H  0.69472053  0.07069793  0.32517407     0.15000
H1029       H  0.75205031  0.97610394  0.38500321     0.15000
C1030       C  0.79732059  0.01607229  0.35328987    -0.23900
H1031       H  0.64111904  0.05257754  0.34291819     0.05200
H1032       H  0.64098512  0.03308013  0.38433428     0.08500
H1033       H  0.63797297  0.00705019  0.34628178     0.08500
H1034       H  0.81002149  0.03791949  0.36592331     0.08400
H1035       H  0.80613927  0.01386613  0.32647095     0.08400
H1036       H  0.80529833  0.99269580  0.36697063     0.05200
C1037       C  0.20391921  0.55034875  0.16643293    -0.20600
C1038       C  0.23777339  0.54536874  0.17661699    -0.07200
C1039       C  0.25516150  0.51605171  0.16571692     0.13700
C1040       C  0.23821236  0.49216209  0.14544502    -0.20600
C1041       C  0.20398147  0.49632782  0.13595518    -0.07200
C1042       C  0.18682309  0.52627615  0.14600329     0.13700
C1043       C  0.15048175  0.53256676  0.13620372    -0.24000
H1044       H  0.19087288  0.57332782  0.17436737     0.15000
H1045       H  0.25168793  0.46935560  0.13774875     0.15000
C1046       C  0.29104518  0.50900019  0.17678175    -0.23900
H1047       H  0.14094583  0.55701826  0.14675318     0.05200
H1048       H  0.13414102  0.51178503  0.14610515     0.08500
H1049       H  0.14829327  0.53375522  0.10801141     0.08500
H1050       H  0.29242682  0.50873276  0.20505777     0.08400
H1051       H  0.30826116  0.52888547  0.16679125     0.08400
H1052       H  0.30025497  0.48402753  0.16721677     0.05200
C1053       C  0.40969414  0.63111154  0.08799456    -0.20600
C1054       C  0.38488931  0.61282677  0.10604727    -0.07200
C1055       C  0.38282198  0.57698106  0.10129499     0.13700
C1056       C  0.40454061  0.56093504  0.07780024    -0.20600
C1057       C  0.42797351  0.57964054  0.05870016    -0.07200
C1058       C  0.43100614  0.61506826  0.06428941     0.13700
C1059       C  0.45611434  0.63678067  0.04511464    -0.24000
H1060       H  0.41217327  0.65832941  0.09193689     0.15000
H1061       H  0.40179926  0.53391682  0.07277064     0.15000
C1062       C  0.35805574  0.55521789  0.12081284    -0.23900
H1063       H  0.44232308  0.65569894  0.02938113     0.05200
H1064       H  0.47290225  0.62163812  0.02820243     0.08500
H1065       H  0.47254939  0.65051956  0.06354098     0.08500
H1066       H  0.33169315  0.56237219  0.11409599     0.08400
H1067       H  0.36218024  0.55851566  0.14862373     0.08400
H1068       H  0.36109371  0.52774312  0.11478629     0.05200
C1069       C  0.16042039  0.62824073  0.35000677    -0.20600
C1070       C  0.16666445  0.62136190  0.31523275    -0.07200
C1071       C  0.15172509  0.59188223  0.30048633     0.13700
C1072       C  0.12984941  0.57169006  0.32024806    -0.20600
C1073       C  0.12251265  0.57974340  0.35429053    -0.07200
C1074       C  0.13854255  0.60797930  0.36958382     0.13700
C1075       C  0.13181448  0.61847104  0.40597924    -0.24000
H1076       H  0.17230732  0.64997685  0.36215037     0.15000
H1077       H  0.11665464  0.55050173  0.30844127     0.15000
C1078       C  0.15737905  0.58187167  0.26377517    -0.23900
H1079       H  0.15607837  0.61907505  0.42027774     0.05200
H1080       H  0.11446021  0.60083949  0.41945073     0.08500
H1081       H  0.12040461  0.64429709  0.40647369     0.08500
H1082       H  0.18440399  0.57529551  0.25969479     0.08400
H1083       H  0.14985423  0.60304621  0.24669670     0.08400
H1084       H  0.14221650  0.55916638  0.25647710     0.05200
C1085       C  0.43354322  0.85893261  0.34474884    -0.20600
C1086       C  0.41304448  0.87865323  0.36613353    -0.07200
C1087       C  0.37778122  0.87261299  0.36718391     0.13700
C1088       C  0.36354098  0.84845799  0.34507507    -0.20600
C1089       C  0.38365306  0.83009139  0.32178767    -0.07200
C1090       C  0.41943512  0.83464737  0.32256945     0.13700
C1091       C  0.44318144  0.81416252  0.30043094    -0.24000
H1092       H  0.46056680  0.86397315  0.34397818     0.15000
H1093       H  0.33637522  0.84432923  0.34568427     0.15000
C1094       C  0.35514142  0.89162204  0.39172147    -0.23900
H1095       H  0.47018208  0.82016491  0.30578692     0.05200
H1096       H  0.43855150  0.81998873  0.27317262     0.08500
H1097       H  0.43942304  0.78656413  0.30519469     0.08500
H1098       H  0.35550001  0.91925590  0.38609397     0.08400
H1099       H  0.36407011  0.88744547  0.41821928     0.08400
H1100       H  0.32841650  0.88281546  0.39011004     0.05200
C1101       C  0.24755172  0.08446126  0.39328066    -0.20600
C1102       C  0.24045141  0.11931503  0.38818831    -0.07200
C1103       C  0.21093866  0.13333201  0.40350599     0.13700
C1104       C  0.19026727  0.11250147  0.42375395    -0.20600
C1105       C  0.19860712  0.07847957  0.43025653    -0.07200
C1106       C  0.22729135  0.06410981  0.41450757     0.13700
C1107       C  0.23750397  0.02786292  0.42161906    -0.24000
H1108       H  0.26955609  0.07308487  0.38124245     0.15000
H1109       H  0.16883270  0.12361825  0.43709163     0.15000
C1110       C  0.20162497  0.17042562  0.40043635    -0.23900
H1111       H  0.26072019  0.02054242  0.40730345     0.05200
H1112       H  0.21669888  0.01040203  0.41399325     0.08500
H1113       H  0.24269068  0.02459716  0.44923884     0.08500
H1114       H  0.19523788  0.17646888  0.37362263     0.08400
H1115       H  0.22299837  0.18658084  0.40928421     0.08400
H1116       H  0.17910771  0.17703161  0.41616428     0.05200
C1117       C  0.50692961  0.12505712  0.13817837    -0.20600
C1118       C  0.50538608  0.08951924  0.13427224    -0.07200
C1119       C  0.47813039  0.07135324  0.14865246     0.13700
C1120       C  0.45350519  0.08917105  0.16737367    -0.20600
C1121       C  0.45543869  0.12470982  0.17199896    -0.07200
C1122       C  0.48246998  0.14293232  0.15686355     0.13700
C1123       C  0.48676725  0.18085341  0.16141767    -0.24000
H1124       H  0.52827445  0.13882221  0.12746839     0.15000
H1125       H  0.43244080  0.07519352  0.17830810     0.15000
C1126       C  0.47567834  0.03319558  0.14558605    -0.23900
H1127       H  0.51099935  0.19006621  0.15027822     0.05200
H1128       H  0.48686319  0.18731920  0.18899845     0.08500
H1129       H  0.46600997  0.19469174  0.14839860     0.08500
H1130       H  0.49852882  0.02116863  0.15682268     0.08400
H1131       H  0.47364017  0.02585854  0.11831337     0.08400
H1132       H  0.45307164  0.02305152  0.15909596     0.05200
C1133       C  0.23395486  0.37001376  0.12599642    -0.20600
C1134       C  0.19915646  0.37468832  0.13146231    -0.07200
C1135       C  0.18236909  0.35543514  0.15652361     0.13700
C1136       C  0.20112641  0.33264503  0.17644279    -0.20600
C1137       C  0.23648182  0.32922996  0.17241571    -0.07200
C1138       C  0.25297124  0.34767977  0.14612361     0.13700
C1139       C  0.29070608  0.34570533  0.14009296    -0.24000
H1140       H  0.24672323  0.38572094  0.10722284     0.15000
H1141       H  0.18809562  0.31793246  0.19577920     0.15000
C1142       C  0.14513899  0.36039592  0.16356047    -0.23900
H1143       H  0.29916499  0.36354171  0.11984963     0.05200
H1144       H  0.29783501  0.31973106  0.13171007     0.08500
H1145       H  0.30447563  0.35240100  0.16385024     0.08500
H1146       H  0.13036275  0.35471274  0.14016230     0.08400
H1147       H  0.14031185  0.38711700  0.17147310     0.08400
H1148       H  0.13598663  0.34340441  0.18423151     0.05200
C1149       C  0.41071951  0.26269729  0.10420917    -0.20600
C1150       C  0.37540301  0.25920458  0.09952779    -0.07200
C1151       C  0.35995729  0.27498778  0.07129332     0.13700
C1152       C  0.38006018  0.29368947  0.04864495    -0.20600
C1153       C  0.41538328  0.29660506  0.05276905    -0.07200
C1154       C  0.43093246  0.28113613  0.08107907     0.13700
C1155       C  0.46871242  0.28290211  0.08621664    -0.24000
H1156       H  0.42258262  0.25098500  0.12616104     0.15000
H1157       H  0.36820395  0.30514063  0.02653933     0.15000
C1158       C  0.32273919  0.27069928  0.06363622    -0.23900
H1159       H  0.47671230  0.26887361  0.10941109     0.05200
H1160       H  0.47668928  0.30985377  0.08911431     0.08500
H1161       H  0.48192779  0.27151619  0.06392535     0.08500
H1162       H  0.30716532  0.28295826  0.08370846     0.08400
H1163       H  0.31639867  0.24319715  0.06207874     0.08400
H1164       H  0.31570357  0.28257322  0.03896793     0.05200
C1165       C  0.36571747  0.03353650  0.34427206    -0.20600
C1166       C  0.38140154  0.04578689  0.31445734    -0.07200
C1167       C  0.41535666  0.03557796  0.30734639     0.13700
C1168       C  0.43174487  0.01281612  0.32951274    -0.20600
C1169       C  0.41555760  0.00036844  0.35871837    -0.07200
C1170       C  0.38230187  0.01114570  0.36637598     0.13700
C1171       C  0.36341051  0.99916179  0.39759221    -0.24000
H1172       H  0.34013656  0.04143574  0.35060407     0.15000
H1173       H  0.45692041  0.00357973  0.32332498     0.15000
C1174       C  0.43490573  0.04840531  0.27683612    -0.23900
H1175       H  0.35583190  0.02152204  0.41320446     0.05200
H1176       H  0.37880472  0.98224318  0.41402120     0.08500
H1177       H  0.34024352  0.98515212  0.38972488     0.08500
H1178       H  0.43704279  0.07657075  0.27795073     0.08400
H1179       H  0.42205977  0.04051233  0.25292475     0.08400
H1180       H  0.46106895  0.03800011  0.27596798     0.05200
C1181       C  0.96120217  0.29307529  0.31361498    -0.20600
C1182       C  0.95617877  0.25826768  0.32078692    -0.07200
C1183       C  0.97284902  0.24395544  0.34947957     0.13700
C1184       C  0.99437785  0.26454848  0.36925426    -0.20600
C1185       C  0.99967629  0.29893468  0.36144760    -0.07200
C1186       C  0.98288606  0.31338707  0.33338923     0.13700
C1187       C  0.98912812  0.34988576  0.32340266    -0.24000
H1188       H  0.94831469  0.30458018  0.29217644     0.15000
H1189       H  0.00859021  0.25334250  0.39004067     0.15000
C1190       C  0.96945766  0.20689406  0.35891147    -0.23900
H1191       H  0.97403808  0.35727338  0.30071121     0.05200
H1192       H  0.01635811  0.35365506  0.31721920     0.08500
H1193       H  0.98203265  0.36695573  0.34485432     0.08500
H1194       H  0.97659227  0.19061964  0.33685517     0.08400
H1195       H  0.94306967  0.20129712  0.36694136     0.08400
H1196       H  0.98620652  0.19996864  0.38055007     0.05200
C1197       C  0.16219083  0.25903911  0.35520711    -0.20600
C1198       C  0.16602488  0.26276746  0.31963546    -0.07200
C1199       C  0.14707325  0.28857783  0.30293160     0.13700
C1200       C  0.12453929  0.30882900  0.32200031    -0.20600
C1201       C  0.12047771  0.30448728  0.35726303    -0.07200
C1202       C  0.13960131  0.27940762  0.37406618     0.13700
C1203       C  0.13497645  0.27312058  0.41166914    -0.24000
H1204       H  0.17686080  0.23993645  0.36848323     0.15000
H1205       H  0.10871858  0.32727887  0.30904635     0.15000
C1206       C  0.14918248  0.29436763  0.26496537    -0.23900
H1207       H  0.15171569  0.25240119  0.42092606     0.05200
H1208       H  0.10831188  0.26572774  0.41700104     0.08500
H1209       H  0.14109817  0.29665963  0.42612794     0.08500
H1210       H  0.14344045  0.27036216  0.25112737     0.08400
H1211       H  0.17484216  0.30360800  0.25799627     0.08400
H1212       H  0.13081149  0.31391580  0.25627058     0.05200
C1213       C  0.50582932  0.75242115  0.87109148    -0.20600
C1214       C  0.50565063  0.78815950  0.87220085    -0.07200
C1215       C  0.48017587  0.80617059  0.85482974     0.13700
C1216       C  0.45576023  0.78795477  0.83626382    -0.20600
C1217       C  0.45608013  0.75209014  0.83463763    -0.07200
C1218       C  0.48132862  0.73407796  0.85279583     0.13700
C1219       C  0.48361001  0.69575575  0.85213675    -0.24000
H1220       H  0.52594436  0.73878419  0.88400241     0.15000
H1221       H  0.43617109  0.80195395  0.82297304     0.15000
C1222       C  0.47958564  0.84452220  0.85449264    -0.23900
H1223       H  0.50641019  0.68639434  0.86578977     0.05200
H1224       H  0.48513528  0.68661203  0.82536668     0.16100
H1225       H  0.46118131  0.68446393  0.86491807     0.08500
H1226       H  0.50364853  0.85440032  0.84358786     0.08400
H1227       H  0.47645427  0.85433407  0.88087565     0.08400
H1228       H  0.45834416  0.85449715  0.83889038     0.05200
C1229       C  0.64020348  0.76619534  0.88412189    -0.20600
C1230       C  0.62672585  0.79536418  0.86899325    -0.07200
C1231       C  0.63581634  0.80353670  0.83523183     0.13700
C1232       C  0.65728305  0.78164762  0.81688317    -0.20600
C1233       C  0.66948934  0.75114515  0.83116914    -0.07200
C1234       C  0.66147728  0.74395336  0.86588442     0.13700
C1235       C  0.67452103  0.71290197  0.88421283    -0.24000
H1236       H  0.63223277  0.75966351  0.90977186     0.15000
H1237       H  0.66382817  0.78814782  0.79085379     0.15000
C1238       C  0.62169156  0.83477480  0.81813612    -0.23900
H1239       H  0.66566048  0.71193060  0.91109477     0.05200
H1240       H  0.70265014  0.71331690  0.88473113     0.08500
H1241       H  0.66532869  0.68943308  0.87139086     0.08500
H1242       H  0.62878101  0.85776723  0.83302482     0.08400
H1243       H  0.59363721  0.83304732  0.81668795     0.08400
H1244       H  0.63163372  0.83778025  0.79179024     0.05200
C1245       C  0.24761879  0.34088864  0.85281699    -0.20600
C1246       C  0.24430478  0.33721381  0.81717237    -0.07200
C1247       C  0.21858405  0.35595805  0.80020629     0.13700
C1248       C  0.19743707  0.37755512  0.81920780    -0.20600
C1249       C  0.20117428  0.38126678  0.85450082    -0.07200
C1250       C  0.22664229  0.36296080  0.87153868     0.13700
C1251       C  0.23261086  0.36790750  0.90917952    -0.24000
H1252       H  0.26682862  0.32654192  0.86624024     0.15000
H1253       H  0.17872774  0.39300358  0.80620193     0.15000
C1254       C  0.21377597  0.35472448  0.76206506    -0.23900
H1255       H  0.25374607  0.35180547  0.91856686     0.05200
H1256       H  0.20932843  0.36107251  0.92357020     0.08500
H1257       H  0.23910870  0.39492156  0.91446848     0.08500
H1258       H  0.20507547  0.32907066  0.75414263     0.08400
H1259       H  0.23793340  0.36121390  0.74902893     0.08400
H1260       H  0.19428028  0.37313310  0.75335052     0.05200
C1261       C  0.18295212  0.52534692  0.84362033    -0.20600
C1262       C  0.20241307  0.50250972  0.86259311    -0.07200
C1263       C  0.23817237  0.50514438  0.86199911     0.13700
C1264       C  0.25364687  0.52855907  0.84019120    -0.20600
C1265       C  0.23440012  0.54982444  0.81910418    -0.07200
C1266       C  0.19846782  0.54916910  0.82191753     0.13700
C1267       C  0.17619480  0.57340856  0.80243536    -0.24000
H1268       H  0.15556017  0.52303740  0.84405579     0.15000
H1269       H  0.28109414  0.52971111  0.83926028     0.15000
C1270       C  0.26078523  0.48297101  0.88355993    -0.23900
H1271       H  0.14903945  0.57043034  0.80938000     0.05200
H1272       H  0.17846501  0.56838620  0.77475297     0.08500
H1273       H  0.18366998  0.60008288  0.80808928     0.08500
H1274       H  0.27651291  0.46647847  0.86681308     0.08400
H1275       H  0.24636004  0.46660397  0.90145590     0.08400
H1276       H  0.27775809  0.49930030  0.89914561     0.05200
C1277       C  0.66214142  0.11003411  0.85103652    -0.20600
C1278       C  0.66242903  0.10966401  0.81504292    -0.07200
C1279       C  0.63783372  0.08975883  0.79772343     0.13700
C1280       C  0.61360093  0.07169774  0.81676775    -0.20600
C1281       C  0.61332166  0.07241223  0.85259145    -0.07200
C1282       C  0.63796023  0.09173033  0.86994031     0.13700
C1283       C  0.63787654  0.09435986  0.90827334    -0.24000
H1284       H  0.68106950  0.12470901  0.86465178     0.15000
H1285       H  0.59411924  0.05734624  0.80355332     0.15000
C1286       C  0.63594467  0.08810955  0.75933056    -0.23900
H1287       H  0.65840732  0.11128462  0.91769575     0.05200
H1288       H  0.64170456  0.06878641  0.91958564     0.08500
H1289       H  0.61328972  0.10490141  0.91719465     0.08500
H1290       H  0.65881605  0.07542261  0.74886643     0.08400
H1291       H  0.63372313  0.11418880  0.74872904     0.08400
H1292       H  0.61364328  0.07324150  0.75050999     0.05200
C1293       C  0.48628886  0.06033790  0.82401507    -0.20600
C1294       C  0.49176467  0.06820172  0.85840342    -0.07200
C1295       C  0.47190951  0.09346674  0.87421112     0.13700
C1296       C  0.44791467  0.11133680  0.85474148    -0.20600
C1297       C  0.44319911  0.10458069  0.81965233    -0.07200
C1298       C  0.46218181  0.07776035  0.80444718     0.13700
C1299       C  0.45822553  0.06749862  0.76756170    -0.24000
H1300       H  0.50217799  0.04123061  0.81199452     0.15000
H1301       H  0.43300318  0.13096942  0.86710796     0.15000
C1302       C  0.47702332  0.10248580  0.91120347    -0.23900
H1303       H  0.47620031  0.04700924  0.76016623     0.05200
H1304       H  0.46325310  0.08962911  0.75074195     0.08500
H1305       H  0.43227751  0.05750837  0.76312107     0.08500
H1306       H  0.50339772  0.11146585  0.91532732     0.08400
H1307       H  0.47232887  0.07970655  0.92724295     0.08400
H1308       H  0.45946571  0.12294089  0.91964792     0.05200
C1309       C  0.91380731  0.52313976  0.86611342    -0.20600
C1310       C  0.93083183  0.49813967  0.84737202    -0.07200
C1311       C  0.93102088  0.49977800  0.81134027     0.13700
C1312       C  0.91192867  0.52488795  0.79489834    -0.20600
C1313       C  0.89246398  0.54832550  0.81356397    -0.07200
C1314       C  0.89465599  0.54833506  0.84972435     0.13700
C1315       C  0.87729910  0.57490147  0.87136496    -0.24000
H1316       H  0.91372283  0.52165362  0.89372105     0.15000
H1317       H  0.91166209  0.52561253  0.76725717     0.15000
C1318       C  0.95073927  0.47503278  0.78955219    -0.23900
H1319       H  0.88360672  0.57207666  0.89880524     0.05200
H1320       H  0.84943807  0.57247929  0.86896960     0.08500
H1321       H  0.88542683  0.60071621  0.86325891     0.08500
H1322       H  0.96616923  0.45708900  0.80482443     0.08400
H1323       H  0.96839201  0.48931850  0.77275240     0.08400
H1324       H  0.93299172  0.46010257  0.77343473     0.05200
C1325       C  0.87497072  0.37909772  0.86303278    -0.20600
C1326       C  0.91024874  0.37858772  0.85867357    -0.07200
C1327       C  0.92481836  0.35572544  0.83521407     0.13700
C1328       C  0.90368115  0.33401517  0.81635502    -0.20600
C1329       C  0.86813573  0.33484403  0.82001775    -0.07200
C1330       C  0.85365844  0.35738978  0.84430705     0.13700
C1331       C  0.81589533  0.35984211  0.84994567    -0.24000
H1332       H  0.86396450  0.39764466  0.88032100     0.15000
H1333       H  0.91512141  0.31617827  0.79867517     0.15000
C1334       C  0.96253084  0.35527247  0.82907408    -0.23900
H1335       H  0.80926618  0.38065110  0.86798012     0.05200
H1336       H  0.80612298  0.33581621  0.86109230     0.08500
H1337       H  0.80295910  0.36510494  0.82539655     0.08500
H1338       H  0.97588008  0.34933684  0.85323318     0.08400
H1339       H  0.97105024  0.38052660  0.81969429     0.08400
H1340       H  0.96981291  0.33582990  0.80981467     0.05200
C1341       C  0.88407812  0.32783163  0.14217917    -0.20600
C1342       C  0.88218858  0.32925194  0.17803091    -0.07200
C1343       C  0.90098832  0.35428231  0.19571989     0.13700
C1344       C  0.92007445  0.37788573  0.17708587    -0.20600
C1345       C  0.92107476  0.37720952  0.14128380    -0.07200
C1346       C  0.90344761  0.35146654  0.12357100     0.13700
C1347       C  0.90388638  0.34974799  0.08520491    -0.24000
H1348       H  0.87031690  0.30809735  0.12865554     0.15000
H1349       H  0.93338206  0.39799363  0.19054020     0.15000
C1350       C  0.89972993  0.35748883  0.23404011    -0.23900
H1351       H  0.88825625  0.32830553  0.07547081     0.05200
H1352       H  0.93027929  0.34599997  0.07607721     0.08500
H1353       H  0.89368497  0.37374718  0.07442754     0.08500
H1354       H  0.91120869  0.33474515  0.24607098     0.08400
H1355       H  0.87302392  0.36023787  0.24260673     0.08400
H1356       H  0.91405638  0.38006391  0.24321965     0.05200
C1357       C  0.88444014  0.50315472  0.13431333    -0.20600
C1358       C  0.91968802  0.49926811  0.13625044    -0.07200
C1359       C  0.93858709  0.52122539  0.15735640     0.13700
C1360       C  0.92159533  0.54615386  0.17671660    -0.20600
C1361       C  0.88607610  0.54990732  0.17526399    -0.07200
C1362       C  0.86738995  0.52839498  0.15300405     0.13700
C1363       C  0.82945673  0.53103969  0.14917458    -0.24000
H1364       H  0.87004166  0.48564842  0.11854392     0.15000
H1365       H  0.93625695  0.56297308  0.19291169     0.15000
C1366       C  0.97646279  0.51753545  0.16036871    -0.23900
H1367       H  0.81908408  0.51069841  0.13244678     0.05200
H1368       H  0.82289434  0.55571418  0.13726386     0.08500
H1369       H  0.81699697  0.52879311  0.17447551     0.08500
H1370       H  0.98841096  0.52124439  0.13498996     0.08400
H1371       H  0.98282720  0.49174578  0.16993621     0.08400
H1372       H  0.98738869  0.53656525  0.17823658     0.05200
C1373       C  0.66235787  0.75781990  0.15025143    -0.20600
C1374       C  0.66539716  0.75845248  0.18607090    -0.07200
C1375       C  0.64593900  0.78236495  0.20491269     0.13700
C1376       C  0.62378246  0.80414444  0.18753329    -0.20600
C1377       C  0.62033696  0.80289383  0.15195750    -0.07200
C1378       C  0.64000182  0.77964293  0.13302859     0.13700
C1379       C  0.63621756  0.77668324  0.09491233    -0.24000
H1380       H  0.67751475  0.74007262  0.13553391     0.15000
H1381       H  0.60775195  0.82138139  0.20197331     0.15000
C1382       C  0.64690622  0.78426823  0.24334069    -0.23900
H1383       H  0.65314884  0.75681242  0.08409222     0.05200
H1384       H  0.64273039  0.80133998  0.08277446     0.08500
H1385       H  0.60967964  0.76983490  0.08842083     0.08500
H1386       H  0.67220207  0.79290395  0.25206536     0.08400
H1387       H  0.64103190  0.75891933  0.25433592     0.08400
H1388       H  0.62806629  0.80266571  0.25357151     0.05200
C1389       C  0.48213635  0.78121865  0.13207899    -0.20600
C1390       C  0.49943568  0.80502619  0.15215179    -0.07200
C1391       C  0.49344085  0.80593831  0.18768217     0.13700
C1392       C  0.47176695  0.78182659  0.20251939    -0.20600
C1393       C  0.45582761  0.75650630  0.18287571    -0.07200
C1394       C  0.46037224  0.75693705  0.14684468     0.13700
C1395       C  0.44254272  0.73215707  0.12352380    -0.24000
H1396       H  0.48736291  0.78023609  0.10493817     0.15000
H1397       H  0.46781422  0.78240088  0.22985544     0.15000
C1398       C  0.51021788  0.83224518  0.21012159    -0.23900
H1399       H  0.44820104  0.73726769  0.09624972     0.05200
H1400       H  0.41467680  0.73422388  0.12700405     0.08500
H1401       H  0.45097792  0.70579669  0.12901567     0.08500
H1402       H  0.50376166  0.85811786  0.20085762     0.08400
H1403       H  0.53813990  0.82903910  0.20981761     0.08400
H1404       H  0.50165942  0.83020463  0.23704513     0.05200
C1405       C  0.92242056  0.76409832  0.44182978    -0.20600
C1406       C  0.92188249  0.79973977  0.44426119    -0.07200
C1407       C  0.90120645  0.81848604  0.42183719     0.13700
C1408       C  0.88129619  0.80099603  0.39768477    -0.20600
C1409       C  0.88176691  0.76519235  0.39530884    -0.07200
C1410       C  0.90296556  0.74658094  0.41756201     0.13700
C1411       C  0.90427031  0.70821885  0.41694297    -0.24000
H1412       H  0.93759121  0.74978266  0.45982458     0.15000
H1413       H  0.86551848  0.81539484  0.38031946     0.15000
C1414       C  0.89923333  0.85670138  0.42420248    -0.23900
H1415       H  0.92015594  0.69797245  0.43789797     0.05200
H1416       H  0.91549438  0.69920597  0.39261301     0.08500
H1417       H  0.87831702  0.69766073  0.41991426     0.08500
H1418       H  0.92471681  0.86786213  0.41973046     0.08400
H1419       H  0.89012564  0.86434321  0.44990958     0.08400
H1420       H  0.88157582  0.86740399  0.40498508     0.05200
C1421       C  0.89339299  0.81882694  0.57904648    -0.20600
C1422       C  0.92189899  0.80192394  0.56632185    -0.07200
C1423       C  0.92842573  0.76823671  0.57648930     0.13700
C1424       C  0.90533063  0.75154982  0.59795592    -0.20600
C1425       C  0.87549466  0.76765656  0.60956246    -0.07200
C1426       C  0.87013723  0.80232771  0.60059836     0.13700
C1427       C  0.83979718  0.82221612  0.61262805    -0.24000
H1428       H  0.88820292  0.84446629  0.57030301     0.15000
H1429       H  0.91051995  0.72547462  0.60520275     0.15000
C1430       C  0.95952234  0.74969965  0.56397616    -0.23900
H1431       H  0.84048911  0.84904718  0.60377978     0.05200
H1432       H  0.83886864  0.82270521  0.64092436     0.08500
H1433       H  0.81658163  0.81041828  0.60202315     0.08500
H1434       H  0.98256996  0.76401272  0.57168363     0.08400
H1435       H  0.95899082  0.74744175  0.53576188     0.08400
H1436       H  0.96123330  0.72364443  0.57476792     0.05200
C1437       C  0.88355068  0.07076043  0.56916756    -0.20600
C1438       C  0.91833902  0.07687649  0.56486838    -0.07200
C1439       C  0.93344659  0.10450596  0.58193805     0.13700
C1440       C  0.91322830  0.12599400  0.60216961    -0.20600
C1441       C  0.87793293  0.12099285  0.60531272    -0.07200
C1442       C  0.86307869  0.09231177  0.58903420     0.13700
C1443       C  0.82560400  0.08480995  0.59088190    -0.24000
H1444       H  0.87191875  0.05013767  0.55492987     0.15000
H1445       H  0.92512113  0.14727805  0.61508585     0.15000
C1446       C  0.97051167  0.11247097  0.57713235    -0.23900
H1447       H  0.81844218  0.06272147  0.57468054     0.05200
H1448       H  0.81092927  0.10715805  0.58191141     0.08500
H1449       H  0.81833450  0.07842066  0.61741904     0.08500
H1450       H  0.97581157  0.11781164  0.54984125     0.08400
H1451       H  0.98598943  0.09040211  0.58539440     0.08400
H1452       H  0.97839356  0.13505789  0.59225596     0.05200
C1453       C  0.88127133  0.08014928  0.44556273    -0.20600
C1454       C  0.91663274  0.07581111  0.44348283    -0.07200
C1455       C  0.93468050  0.09180310  0.41691304     0.13700
C1456       C  0.91713001  0.11324708  0.39432853    -0.20600
C1457       C  0.88206610  0.11915513  0.39782293    -0.07200
C1458       C  0.86381636  0.10184168  0.42348315     0.13700
C1459       C  0.82642304  0.10761475  0.42925094    -0.24000
H1460       H  0.86741600  0.06792042  0.46608022     0.15000
H1461       H  0.93095080  0.12578643  0.37399914     0.15000
C1462       C  0.97244737  0.08767053  0.41326637    -0.23900
H1463       H  0.81707285  0.09406532  0.45225844     0.05200
H1464       H  0.81166544  0.09802357  0.40717770     0.08500
H1465       H  0.82146801  0.13520165  0.43295770     0.08500
H1466       H  0.97865291  0.06040862  0.40915878     0.08400
H1467       H  0.98533716  0.09693628  0.43666123     0.08400
H1468       H  0.98251276  0.10228826  0.39124556     0.05200
C1469       C  0.24750307  0.80677740  0.56028918    -0.20600
C1470       C  0.21192454  0.80519353  0.56064952    -0.07200
C1471       C  0.19547576  0.78561573  0.58575629     0.13700
C1472       C  0.21506848  0.76726425  0.60928487    -0.20600
C1473       C  0.25081260  0.76832813  0.60870642    -0.07200
C1474       C  0.26717448  0.78911899  0.58423397     0.13700
C1475       C  0.30522110  0.79219727  0.58237373    -0.24000
H1476       H  0.26000678  0.82148314  0.54055470     0.15000
H1477       H  0.20226520  0.75211052  0.62845545     0.15000
C1478       C  0.15739034  0.78297178  0.58693691    -0.23900
H1479       H  0.31348837  0.80780259  0.56028428     0.05200
H1480       H  0.31679904  0.76658207  0.57969508     0.08500
H1481       H  0.31486903  0.80485126  0.60571554     0.08500
H1482       H  0.14778302  0.77243359  0.56249546     0.08400
H1483       H  0.14626224  0.80857617  0.59120958     0.08400
H1484       H  0.14866988  0.76608762  0.60787530     0.05200
C1485       C  0.18886326  0.77286689  0.42729966    -0.20600
C1486       C  0.20195268  0.80398498  0.43864977    -0.07200
C1487       C  0.23272391  0.81613620  0.42501668     0.13700
C1488       C  0.25023614  0.79634165  0.40106290    -0.20600
C1489       C  0.23810261  0.76429029  0.39037979    -0.07200
C1490       C  0.20633815  0.75278938  0.40331922     0.13700
C1491       C  0.19083742  0.71914486  0.39318853    -0.24000
H1492       H  0.16565914  0.76337345  0.43872309     0.15000
H1493       H  0.27389312  0.80615840  0.39096559     0.15000
C1494       C  0.24833341  0.84944177  0.43604944    -0.23900
H1495       H  0.16677036  0.71407301  0.40703838     0.05200
H1496       H  0.20857015  0.69807975  0.39921528     0.08500
H1497       H  0.18482708  0.71915958  0.36555844     0.08500
H1498       H  0.27337628  0.84460338  0.44797232     0.08400
H1499       H  0.23237610  0.86354329  0.45459705     0.08400
H1500       H  0.25199930  0.86601895  0.41344346     0.05200
loop_ 
_geom_bond_atom_site_label_1 
_geom_bond_atom_site_label_2 
_geom_bond_distance 
_geom_bond_site_symmetry_2 
_ccdc_geom_bond_type 
C1            N2   1.364       .  A
C1            N6   1.348       .  A
C1         C1470   1.476       .  S
N2            C3   1.368       .  A
C3            N4   1.365       .  A
C3          C549   1.490       .  S
N4            C5   1.359       .  A
C5            N6   1.347       .  A
C5         C1486   1.465       .  S
C7            N8   1.362       .  A
C7           N12   1.341       .  A
C7         C1438   1.469       .  S
N8            C9   1.369       .  A
C9           N10   1.370       .  A
C9          C551   1.491   1_655  S
N10          C11   1.363       .  A
C11          N12   1.344       .  A
C11        C1454   1.478       .  S
C13          N14   1.346       .  A
C13          N18   1.360       .  A
C13        C1422   1.466       .  S
N14          C15   1.347       .  A
C15          N16   1.364       .  A
C15        C1406   1.476       .  S
N16          C17   1.369       .  A
C17          N18   1.366       .  A
C17         C552   1.490   1_655  S
C19          N20   1.364       .  A
C19          N24   1.345       .  A
C19        C1390   1.472       .  S
N20          C21   1.369       .  A
C21          N22   1.367       .  A
C21         C584   1.493       .  S
N22          C23   1.362       .  A
C23          N24   1.345       .  A
C23        C1377   1.471       .  S
C25          N26   1.348       .  A
C25          N30   1.362       .  A
C25        C1345   1.475       .  S
N26          C27   1.346       .  A
C27          N28   1.361       .  A
C27        C1358   1.473       .  S
N28          C29   1.367       .  A
C29          N30   1.367       .  A
C29         C617   1.489       .  S
C31          N32   1.346       .  A
C31          N36   1.363       .  A
C31        C1326   1.467       .  S
N32          C33   1.346       .  A
C33          N34   1.360       .  A
C33        C1310   1.467       .  S
N34          C35   1.366       .  A
C35          N36   1.367       .  A
C35         C620   1.491       .  S
C37          N38   1.363       .  A
C37          N42   1.347       .  A
C37        C1281   1.478       .  S
N38          C39   1.367       .  A
C39          N40   1.368       .  A
C39         C586   1.493   1_545  S
N40          C41   1.363       .  A
C41          N42   1.348       .  A
C41        C1294   1.471       .  S
C43          N44   1.343       .  A
C43          N48   1.360       .  A
C43        C1249   1.465       .  S
N44          C45   1.345       .  A
C45          N46   1.360       .  A
C45        C1262   1.467       .  S
N46          C47   1.366       .  A
C47          N48   1.366       .  A
C47         C619   1.484       .  S
C49          N50   1.346       .  A
C49          N54   1.361       .  A
C49        C1214   1.472       .  S
N50          C51   1.345       .  A
C51          N52   1.362       .  A
C51        C1230   1.467       .  S
N52          C53   1.368       .  A
C53          N54   1.365       .  A
C53         C585   1.488       .  S
C55          N56   1.345       .  A
C55          N60   1.365       .  A
C55        C1201   1.473       .  S
N56          C57   1.345       .  A
C57          N58   1.362       .  A
C57        C1185   1.467   1_455  S
N58          C59   1.368       .  A
C59          N60   1.370       .  A
C59         C687   1.495       .  S
O61         Mg63   2.139       .  S
O61         Mg69   2.140       .  S
O61          C96   1.234       .  S
C62          O75   1.235       .  S
C62          O99   1.271       .  A
C62         H101   1.081       .  S
Mg63         O92   2.161       .  S
Mg63        O107   2.274       .  S
Mg63        O103   2.227       .  S
Mg63         O74   2.296       .  S
O64        Mg106   2.139       .  S
O64         Mg89   2.149       .  S
O64          C85   1.235       .  S
O65          C96   1.270       .  A
O65         Mg89   2.312       .  S
C66        C1166   1.493       .  S
C66          O68   1.266       .  A
C66          O80   1.273       .  A
O67          C95   1.270       .  A
O67         Mg69   2.305       .  S
O68        Mg100   2.247       .  S
Mg69         O75   2.163       .  S
Mg69         O83   2.259       .  S
Mg69         O71   2.270       .  S
C70        C1102   1.491       .  S
C70         O108   1.268       .  A
C70          O76   1.268       .  A
O71          C78   1.266       .  A
H72          C85   1.081       .  S
C73          O87   1.233       .  S
C73          O88   1.270       .  A
C73          H98   1.081       .  S
O74          C97   1.267       .  A
O75         Mg89   2.150       .  S
O76        Mg106   2.279       .  S
C77        C1198   1.497       .  S
C77          O90   1.271       .  A
C77          O82   1.269       .  A
C78        C1137   1.484       .  S
C78         O105   1.267       .  A
Mg79         O86   2.152       .  S
Mg79         O87   2.151       .  S
Mg79         O80   2.291       .  S
Mg79         O81   2.321       .  S
Mg79        O108   2.253       .  S
O81          C85   1.273       .  A
O82         Mg89   2.293       .  S
O83         C102   1.268       .  A
O84         C104   1.273       .  A
O84        Mg100   2.290       .  S
O86        Mg100   2.162       .  S
O86          C97   1.233       .  S
O87        Mg106   2.167       .  S
O88        Mg100   2.313       .  S
Mg89        O105   2.250       .  S
O90        Mg106   2.280       .  S
H91          C96   1.081       .  S
O92        Mg100   2.139       .  S
O92          C95   1.235       .  S
H93          C95   1.081       .  S
H94          C97   1.081       .  S
O99        Mg106   2.317       .  S
C102       C1150   1.481       .  S
C102        O107   1.268       .  A
O103        C104   1.266       .  A
C104       C1121   1.479       .  S
C109        N110   1.361       .  A
C109        N114   1.347       .  A
C109       C1086   1.469       .  S
N110        C111   1.366       .  A
C111        N112   1.367       .  A
C111        C721   1.490       .  S
N112        C113   1.362       .  A
C113        N114   1.347       .  A
C113       C1169   1.468   1_565  S
O115       Mg117   2.159       .  S
O115       Mg123   2.143       .  S
O115        C150   1.235       .  S
C116        O129   1.234       .  S
C116        O153   1.270       .  A
C116        H155   1.081       .  S
Mg117       O146   2.154       .  S
Mg117       O161   2.293       .  S
Mg117       O157   2.260       .  S
Mg117       O128   2.312       .  S
O118       Mg160   2.149       .  S
O118       Mg143   2.156       .  S
O118        C139   1.236       .  S
O119        C150   1.272       .  A
O119       Mg143   2.319       .  S
C120       C1393   1.492       .  S
C120        O122   1.267       .  A
C120        O134   1.269       .  A
O121        C149   1.272       .  A
O121       Mg123   2.319       .  S
O122       Mg154   2.272       .  S
Mg123       O129   2.162       .  S
Mg123       O137   2.261       .  S
Mg123       O125   2.280       .  S
C124       C1089   1.489       .  S
C124        O162   1.267       .  A
C124        O130   1.270       .  A
O125        C132   1.268       .  A
H126        C139   1.081       .  S
C127        O141   1.235       .  S
C127        O142   1.272       .  A
C127        H152   1.081       .  S
O128        C151   1.270       .  A
O129       Mg143   2.150       .  S
O130       Mg160   2.283       .  S
C131       C1489   1.495       .  S
C131        O144   1.269       .  A
C131        O136   1.269       .  A
C132       C1070   1.495       .  S
C132        O159   1.268       .  A
Mg133       O140   2.160       .  S
Mg133       O141   2.141       .  S
Mg133       O134   2.278       .  S
Mg133       O135   2.317       .  S
Mg133       O162   2.261       .  S
O135        C139   1.272       .  A
O136       Mg143   2.290       .  S
O137        C156   1.267       .  A
O138        C158   1.272       .  A
O138       Mg154   2.293       .  S
O140       Mg154   2.149       .  S
O140        C151   1.233       .  S
O141       Mg160   2.155       .  S
O142       Mg154   2.320       .  S
Mg143       O159   2.261       .  S
O144       Mg160   2.255       .  S
H145        C150   1.081       .  S
O146       Mg154   2.165       .  S
O146        C149   1.235       .  S
H147        C149   1.081       .  S
H148        C151   1.081       .  S
O153       Mg160   2.312       .  S
C156       C1038   1.477       .  S
C156        O161   1.271       .  A
O157        C158   1.268       .  A
C158       C1054   1.488       .  S
O163       Mg165   2.148       .  S
O163       Mg171   2.141       .  S
O163        C198   1.234       .  S
C164        O177   1.234       .  S
C164        O201   1.269       .  A
C164        H203   1.081       .  S
Mg165       O194   2.155       .  S
Mg165       O209   2.293       .  S
Mg165       O205   2.260       .  S
Mg165       O176   2.312       .  S
O166       Mg208   2.149       .  S
O166       Mg191   2.149       .  S
O166        C187   1.236       .  S
O167        C198   1.271       .  A
O167       Mg191   2.320       .  S
C168       C1182   1.492       .  S
C168        O170   1.269       .  A
C168        O182   1.268       .  A
O169        C197   1.272       .  A
O169       Mg171   2.313       .  S
O170       Mg202   2.264       .  S
Mg171       O177   2.151       .  S
Mg171       O185   2.237       .  S
Mg171       O173   2.267       .  S
C172       C1457   1.479       .  S
C172        O210   1.267       .  A
C172        O178   1.266       .  A
O173        C180   1.265       .  A
H174        C187   1.081       .  S
C175        O189   1.235       .  S
C175        O190   1.271       .  A
C175        H200   1.081       .  S
O176        C199   1.269       .  A
O177       Mg191   2.151       .  S
O178       Mg208   2.270       .  S
C179       C1022   1.480       .  S
C179        O192   1.265       .  A
C179        O184   1.272       .  A
C180        C990   1.483       .  S
C180        O207   1.267       .  A
Mg181       O188   2.157       .  S
Mg181       O189   2.133       .  S
Mg181       O182   2.280       .  S
Mg181       O183   2.322       .  S
Mg181       O210   2.267       .  S
O183        C187   1.273       .  A
O184       Mg191   2.287       .  S
O185        C204   1.265       .  A
O186        C206   1.270       .  A
O186       Mg202   2.287       .  S
O188       Mg202   2.148       .  S
O188        C199   1.233       .  S
O189       Mg208   2.147       .  S
O190       Mg202   2.315       .  S
Mg191       O207   2.274       .  S
O192       Mg208   2.231       .  S
H193        C198   1.081       .  S
O194       Mg202   2.162       .  S
O194        C197   1.236       .  S
H195        C197   1.081       .  S
H196        C199   1.081       .  S
O201       Mg208   2.306       .  S
C204       C1006   1.482       .  S
C204        O209   1.272       .  A
O205        C206   1.269       .  A
C206       C1342   1.479       .  S
C211        N212   1.362       .  A
C211        N216   1.344       .  A
C211        C977   1.470       .  S
N212        C213   1.367       .  A
C213        N214   1.366       .  A
C213        C720   1.486       .  S
N214        C215   1.360       .  A
C215        N216   1.344       .  A
C215       C1025   1.467       .  S
O217       Mg219   2.160       .  S
O217       Mg225   2.153       .  S
O217        C252   1.235       .  S
C218        O231   1.236       .  S
C218        O255   1.273       .  A
C218        H257   1.081       .  S
Mg219       O248   2.139       .  S
Mg219       O263   2.284       .  S
Mg219       O259   2.273       .  S
Mg219       O230   2.321       .  S
O220       Mg262   2.146       .  S
O220       Mg245   2.168       .  S
O220        C241   1.232       .  S
O221        C252   1.272       .  A
O221       Mg245   2.315       .  S
C222        C974   1.480       .  S
C222        O224   1.265       .  A
C222        O236   1.274       .  A
O223        C251   1.269       .  A
O223       Mg225   2.310       .  S
O224       Mg256   2.227       .  S
Mg225       O231   2.147       .  S
Mg225       O239   2.249       .  S
Mg225       O227   2.286       .  S
C226       C1409   1.486       .  S
C226        O264   1.271       .  A
C226        O232   1.272       .  A
O227        C234   1.269       .  A
H228        C241   1.081       .  S
C229        O243   1.235       .  S
C229        O244   1.271       .  A
C229        H254   1.081       .  S
O230        C253   1.273       .  A
O231       Mg245   2.140       .  S
O232       Mg262   2.295       .  S
C233        C958   1.495       .  S
C233        O246   1.270       .  A
C233        O238   1.268       .  A
C234       C1361   1.492       .  S
C234        O261   1.271       .  A
Mg235       O242   2.152       .  S
Mg235       O243   2.164       .  S
Mg235       O236   2.301       .  S
Mg235       O237   2.311       .  S
Mg235       O264   2.275       .  S
O237        C241   1.269       .  A
O238       Mg245   2.278       .  S
O239        C258   1.268       .  A
O240        C260   1.265       .  A
O240       Mg256   2.273       .  S
O242       Mg256   2.148       .  S
O242        C253   1.236       .  S
O243       Mg262   2.167       .  S
O244       Mg256   2.308       .  S
Mg245       O261   2.281       .  S
O246       Mg262   2.277       .  S
H247        C252   1.081       .  S
O248       Mg256   2.144       .  S
O248        C251   1.233       .  S
H249        C251   1.081       .  S
H250        C253   1.081       .  S
O255       Mg262   2.319       .  S
C258        C942   1.488       .  S
C258        O263   1.269       .  A
O259        C260   1.268       .  A
C260       C1374   1.489       .  S
C265        N266   1.345       .  A
C265        N270   1.361       .  A
C265       C1073   1.468       .  S
N266        C267   1.346       .  A
C267        N268   1.364       .  A
C267        C961   1.472       .  S
N268        C269   1.369       .  A
C269        N270   1.367       .  A
C269        C688   1.492       .  S
C271        N272   1.360       .  A
C271        N276   1.342       .  A
C271        C926   1.464       .  S
N272        C273   1.368       .  A
C273        N274   1.371   1_556  A
C273        C653   1.493       .  S
N274        C275   1.364       .  A
C275        N276   1.344   1_554  A
C275       C1153   1.478       .  S
O277       Mg279   2.146       .  S
O277       Mg285   2.148       .  S
O277        C312   1.236       .  S
C278        O291   1.233       .  S
C278        O315   1.270       .  A
C278        H317   1.081       .  S
Mg279       O308   2.156       .  S
Mg279       O323   2.283       .  S
Mg279       O319   2.254       .  S
Mg279       O290   2.308       .  S
O280       Mg322   2.161       .  S
O280       Mg305   2.166       .  S
O280        C301   1.234       .  S
O281        C312   1.273       .  A
O281       Mg305   2.318       .  S
C282        C913   1.485       .  S
C282        O284   1.263       .  A
C282        O296   1.271       .  A
O283        C311   1.269       .  A
O283       Mg285   2.302       .  S
O284       Mg316   2.228       .  S
Mg285       O291   2.144       .  S
Mg285       O299   2.236       .  S
Mg285       O287   2.274       .  S
C286       C1297   1.496       .  S
C286        O324   1.267       .  A
C286        O292   1.273       .  A
O287        C294   1.266       .  A
H288        C301   1.081       .  S
C289        O303   1.235       .  S
C289        O304   1.272       .  A
C289        H314   1.081       .  S
O290        C313   1.269       .  A
O291       Mg305   2.134       .  S
O292       Mg322   2.300       .  S
C293        C929   1.492       .  S
C293        O306   1.269       .  A
C293        O298   1.267       .  A
C294       C1246   1.492       .  S
C294        O321   1.268       .  A
Mg295       O302   2.152       .  S
Mg295       O303   2.153       .  S
Mg295       O296   2.285       .  S
Mg295       O297   2.311       .  S
Mg295       O324   2.250       .  S
O297        C301   1.270       .  A
O298       Mg305   2.276       .  S
O299        C318   1.268       .  A
O300        C320   1.269       .  A
O300       Mg316   2.276       .  S
O302       Mg316   2.146       .  S
O302        C313   1.233       .  S
O303       Mg322   2.153       .  S
O304       Mg316   2.315       .  S
Mg305       O321   2.271       .  S
O306       Mg322   2.257       .  S
H307        C312   1.081       .  S
O308       Mg316   2.138       .  S
O308        C311   1.234       .  S
H309        C311   1.081       .  S
H310        C313   1.081       .  S
O315       Mg322   2.313       .  S
C318        C894   1.484       .  S
C318        O323   1.269       .  A
O319        C320   1.268       .  A
C320        C878   1.478       .  S
C325        N326   1.345       .  A
C325        N330   1.358       .  A
C325        C862   1.463       .  S
N326        C327   1.346       .  A
C327        N328   1.360       .  A
C327        C910   1.463   1_565  S
N328        C329   1.365       .  A
C329        N330   1.365       .  A
C329        C722   1.484       .  S
O331       Mg333   2.157       .  S
O331       Mg339   2.151       .  S
O331        C366   1.233       .  S
C332        O345   1.236       .  S
C332        O369   1.272       .  A
C332        H371   1.081       .  S
Mg333       O362   2.146       .  S
Mg333       O377   2.283       .  S
Mg333       O373   2.261       .  S
Mg333       O344   2.315       .  S
O334       Mg376   2.140       .  S
O334       Mg359   2.153       .  S
O334        C355   1.234       .  S
O335        C366   1.269       .  A
O335       Mg359   2.305       .  S
C336        C846   1.490       .  S
C336        O338   1.269       .  A
C336        O350   1.271       .  A
O337        C365   1.271       .  A
O337       Mg339   2.315       .  S
O338       Mg370   2.256       .  S
Mg339       O345   2.146       .  S
Mg339       O353   2.258       .  S
Mg339       O341   2.293       .  S
C340       C1265   1.482       .  S
C340        O378   1.266       .  A
C340        O346   1.268       .  A
O341        C348   1.273       .  A
H342        C355   1.081       .  S
C343        O357   1.233       .  S
C343        O358   1.270       .  A
C343        H368   1.081       .  S
O344        C367   1.272       .  A
O345       Mg359   2.153       .  S
O346       Mg376   2.272       .  S
C347        C830   1.495       .  S
C347        O360   1.266       .  A
C347        O352   1.270       .  A
C348       C1217   1.485       .  S
C348        O375   1.268       .  A
Mg349       O356   2.156       .  S
Mg349       O357   2.154       .  S
Mg349       O350   2.294       .  S
Mg349       O351   2.318       .  S
Mg349       O378   2.263       .  S
O351        C355   1.271       .  A
O352       Mg359   2.277       .  S
O353        C372   1.267       .  A
O354        C374   1.271       .  A
O354       Mg370   2.285       .  S
O356       Mg370   2.152       .  S
O356        C367   1.236       .  S
O357       Mg376   2.163       .  S
O358       Mg370   2.314       .  S
Mg359       O375   2.249       .  S
O360       Mg376   2.261       .  S
H361        C366   1.081       .  S
O362       Mg370   2.157       .  S
O362        C365   1.234       .  S
H363        C365   1.081       .  S
H364        C367   1.081       .  S
O369       Mg376   2.318       .  S
C372        C865   1.492       .  S
C372        O377   1.271       .  A
O373        C374   1.268       .  A
C374       C1473   1.488       .  S
C379        N380   1.345       .  A
C379        N384   1.363       .  A
C379        C849   1.473       .  S
N380        C381   1.344       .  A
C381        N382   1.360       .  A
C381        C817   1.463   1_455  S
N382        C383   1.366       .  A
C383        N384   1.369       .  A
C383        C685   1.491       .  S
C385        N386   1.360       .  A
C385        N390   1.346       .  A
C385        C897   1.466       .  S
N386        C387   1.365       .  A
C387        N388   1.368       .  A
C387        C686   1.489       .  S
N388        C389   1.363       .  A
C389        N390   1.345       .  A
C389        C798   1.472   1_455  S
O391       Mg393   2.166       .  S
O391       Mg399   2.159       .  S
O391        C426   1.233       .  S
C392        O405   1.236       .  S
C392        O429   1.273       .  A
C392        H431   1.081       .  S
Mg393       O422   2.133       .  S
Mg393       O437   2.278       .  S
Mg393       O433   2.285       .  S
Mg393       O404   2.322       .  S
O394       Mg436   2.140       .  S
O394       Mg419   2.149       .  S
O394        C415   1.232       .  S
O395        C426   1.269       .  A
O395       Mg419   2.305       .  S
C396       C1278   1.493       .  S
C396        O398   1.268       .  A
C396        O410   1.273       .  A
O397        C425   1.271       .  A
O397       Mg399   2.320       .  S
O398       Mg430   2.256       .  S
Mg399       O405   2.155       .  S
Mg399       O413   2.272       .  S
Mg399       O401   2.311       .  S
C400        C769   1.484       .  S
C400        O438   1.269       .  A
C400        O406   1.271       .  A
O401        C408   1.275       .  A
H402        C415   1.081       .  S
C403        O417   1.234       .  S
C403        O418   1.269       .  A
C403        H428   1.081       .  S
O404        C427   1.274       .  A
O405       Mg419   2.158       .  S
O406       Mg436   2.285       .  S
C407       C1329   1.487       .  S
C407        O420   1.265       .  A
C407        O412   1.271       .  A
C408        C801   1.496       .  S
C408        O435   1.267       .  A
Mg409       O416   2.148       .  S
Mg409       O417   2.161       .  S
Mg409       O410   2.297       .  S
Mg409       O411   2.306       .  S
Mg409       O438   2.257       .  S
O411        C415   1.268       .  A
O412       Mg419   2.283       .  S
O413        C432   1.270       .  A
O414        C434   1.266       .  A
O414       Mg430   2.269       .  S
O416       Mg430   2.153       .  S
O416        C427   1.237       .  S
O417       Mg436   2.149       .  S
O418       Mg430   2.302       .  S
Mg419       O435   2.241       .  S
O420       Mg436   2.245       .  S
H421        C426   1.081       .  S
O422       Mg430   2.158       .  S
O422        C425   1.234       .  S
H423        C425   1.081       .  S
H424        C427   1.081       .  S
O429       Mg436   2.316       .  S
C432       C1441   1.493       .  S
C432        O437   1.268       .  A
O433        C434   1.268       .  A
C434        C782   1.487       .  S
C439        N440   1.346       .  A
C439        N444   1.360       .  A
C439        C750   1.470       .  S
N440        C441   1.348       .  A
C441        N442   1.365       .  A
C441        C785   1.483       .  S
N442        C443   1.369       .  A
C443        N444   1.366       .  A
C443        C719   1.492       .  S
O445       Mg447   2.153       .  S
O445       Mg453   2.150       .  S
O445        C480   1.233       .  S
C446        O459   1.235       .  S
C446        O483   1.273       .  A
C446        H485   1.081       .  S
Mg447       O476   2.137       .  S
Mg447       O491   2.276       .  S
Mg447       O487   2.259       .  S
Mg447       O458   2.322       .  S
O448       Mg490   2.147       .  S
O448       Mg473   2.159       .  S
O448        C469   1.234       .  S
O449        C480   1.270       .  A
O449       Mg473   2.311       .  S
C450       C1313   1.482       .  S
C450        O452   1.266       .  A
C450        O464   1.270       .  A
O451        C479   1.271       .  A
O451       Mg453   2.316       .  S
O452       Mg484   2.248       .  S
Mg453       O459   2.164       .  S
Mg453       O467   2.286       .  S
Mg453       O455   2.294       .  S
C454        C734   1.489       .  S
C454        O492   1.268       .  A
C454        O460   1.268       .  A
O455        C462   1.272       .  A
H456        C469   1.081       .  S
C457        O471   1.235       .  S
C457        O472   1.271       .  A
C457        H482   1.081       .  S
O458        C481   1.274       .  A
O459       Mg473   2.156       .  S
O460       Mg490   2.280       .  S
C461       C1233   1.497       .  S
C461        O474   1.264       .  A
C461        O466   1.269       .  A
C462        C753   1.487       .  S
C462        O489   1.268       .  A
Mg463       O470   2.156       .  S
Mg463       O471   2.149       .  S
Mg463       O464   2.289       .  S
Mg463       O465   2.319       .  S
Mg463       O492   2.277       .  S
O465        C469   1.271       .  A
O466       Mg473   2.279       .  S
O467        C486   1.270       .  A
O468        C488   1.266       .  A
O468       Mg484   2.274       .  S
O470       Mg484   2.144       .  S
O470        C481   1.237       .  S
O471       Mg490   2.157       .  S
O472       Mg484   2.315       .  S
Mg473       O489   2.242       .  S
O474       Mg490   2.252       .  S
H475        C480   1.081       .  S
O476       Mg484   2.149       .  S
O476        C479   1.234       .  S
H477        C479   1.081       .  S
H478        C481   1.081       .  S
O483       Mg490   2.321       .  S
C486       C1425   1.497       .  S
C486        O491   1.269       .  A
O487        C488   1.267       .  A
C488        C814   1.491       .  S
C493        N494   1.361       .  A
C493        N498   1.346       .  A
C493        C833   1.466       .  S
N494        C495   1.367       .  A
C495        N496   1.367   1_556  A
C495        C654   1.489       .  S
N496        C497   1.361       .  A
C497        N498   1.346   1_554  A
C497       C1057   1.469       .  S
C499        N500   1.360       .  A
C499        N504   1.344   1_556  A
C499        C766   1.466       .  S
N500        C501   1.366   1_556  A
C501        N502   1.367       .  A
C501        C652   1.486       .  S
N502        C503   1.362       .  A
C503        N504   1.346       .  A
C503       C1009   1.469       .  S
C505        N506   1.347   1_556  A
C505        N510   1.363       .  A
C505        C737   1.473       .  S
N506        C507   1.346       .  A
C507        N508   1.362       .  A
C507        C945   1.467       .  S
N508        C509   1.367       .  A
C509        N510   1.368   1_554  A
C509        C651   1.492       .  S
C511        N512   1.359       .  A
C511        N516   1.343       .  A
C511       C1118   1.471       .  S
N512        C513   1.365       .  A
C513        N514   1.369       .  A
C513        C583   1.486       .  S
N514        C515   1.363       .  A
C515        N516   1.344       .  A
C515        C993   1.474       .  S
C517        N518   1.357       .  A
C517        N522   1.343       .  A
C517       C1134   1.464       .  S
N518        C519   1.365       .  A
C519        N520   1.370       .  A
C519        C618   1.487       .  S
N520        C521   1.366       .  A
C521        N522   1.347       .  A
C521       C1041   1.487       .  S
C523        N524   1.343       .  A
C523        N528   1.362       .  A
C523        C881   1.477       .  S
N524        C525   1.343       .  A
C525        N526   1.361       .  A
C525       C1105   1.464       .  S
N526        C527   1.368       .  A
C527        N528   1.367       .  A
C527        C550   1.488       .  S
N529        C534   1.357       .  A
N529        C533   1.357       .  A
N529        H561   1.034       .  S
N530        C537   1.355       .  A
N530        C538   1.355       .  A
N531        C536   1.357   1_455  A
N531        C535   1.357   1_455  A
N531        H562   1.032       .  S
N532        C539   1.354   1_565  A
N532        C540   1.355   1_565  A
C533        C541   1.388       .  A
C533        C549   1.422       .  A
C534        C550   1.421   1_565  A
C534        C542   1.387       .  A
C535        C543   1.387       .  A
C535        C552   1.422   1_655  A
C536        C551   1.422   1_665  A
C536        C544   1.387       .  A
C537        C549   1.420       .  A
C537        C545   1.386       .  A
C538        C552   1.422       .  A
C538        C546   1.387       .  A
C539        C547   1.388       .  A
C539        C550   1.420       .  A
C540        C548   1.386       .  A
C540        C551   1.419       .  A
C541        H553   1.082       .  S
C541        C542   1.377       .  A
C542        H554   1.082       .  S
C543        H555   1.082       .  S
C543        C544   1.377       .  A
C544        H556   1.082       .  S
C545        H557   1.083       .  S
C545        C546   1.377       .  A
C546        H558   1.082       .  S
C547        H559   1.082       .  S
C547        C548   1.376       .  A
C548        H560   1.083       .  S
N563        C568   1.357       .  A
N563        C567   1.355       .  A
N563        H595   1.031       .  S
N564        C571   1.354   1_565  A
N564        C572   1.356   1_564  A
N565        C570   1.356       .  A
N565        C569   1.358       .  A
N565        H596   1.033       .  S
N566        C573   1.356       .  A
N566        C574   1.355   1_554  A
C567        C575   1.388       .  A
C567        C583   1.423   1_565  A
C568        C584   1.425       .  A
C568        C576   1.388       .  A
C569        C577   1.388       .  A
C569        C586   1.425       .  A
C570        C585   1.423       .  A
C570        C578   1.388       .  A
C571        C583   1.423       .  A
C571        C579   1.388       .  A
C572        C586   1.421   1_545  A
C572        C580   1.386       .  A
C573        C581   1.386       .  A
C573        C584   1.422       .  A
C574        C582   1.387       .  A
C574        C585   1.422       .  A
C575        H587   1.083       .  S
C575        C576   1.378       .  A
C576        H588   1.082       .  S
C577        H589   1.082       .  S
C577        C578   1.378       .  A
C578        H590   1.082       .  S
C579        H591   1.082       .  S
C579        C580   1.375   1_554  A
C580        H592   1.083       .  S
C581        H593   1.082       .  S
C581        C582   1.375   1_554  A
C582        H594   1.082       .  S
N597        C602   1.357       .  A
N597        C601   1.356       .  A
N597        H629   1.031       .  S
N598        C605   1.355   1_456  A
N598        C606   1.356   1_455  A
N599        C604   1.356       .  A
N599        C603   1.356       .  A
N599        H630   1.030       .  S
N600        C607   1.354   1_556  A
N600        C608   1.354       .  A
C601        C609   1.389       .  A
C601        C617   1.425   1_455  A
C602        C618   1.422       .  A
C602        C610   1.387       .  A
C603        C611   1.390       .  A
C603        C620   1.426   1_455  A
C604        C619   1.422       .  A
C604        C612   1.387       .  A
C605        C617   1.424       .  A
C605        C613   1.387       .  A
C606        C620   1.424       .  A
C606        C614   1.387       .  A
C607        C615   1.387       .  A
C607        C618   1.420       .  A
C608        C616   1.387       .  A
C608        C619   1.419       .  A
C609        H621   1.082       .  S
C609        C610   1.378       .  A
C610        H622   1.082       .  S
C611        H623   1.082       .  S
C611        C612   1.377       .  A
C612        H624   1.082       .  S
C613        H625   1.083       .  S
C613        C614   1.376   1_554  A
C614        H626   1.082       .  S
C615        H627   1.082       .  S
C615        C616   1.373   1_554  A
C616        H628   1.083       .  S
N631        C636   1.355       .  A
N631        C635   1.357       .  A
N631        H663   1.031       .  S
N632        C639   1.356   1_556  A
N632        C640   1.355   1_556  A
N633        C638   1.358       .  A
N633        C637   1.356       .  A
N633        H664   1.033   1_556  S
N634        C641   1.354       .  A
N634        C642   1.356       .  A
C635        C643   1.387   1_554  A
C635        C651   1.423       .  A
C636        C652   1.424       .  A
C636        C644   1.389   1_554  A
C637        C645   1.388       .  A
C637        C654   1.424       .  A
C638        C653   1.425       .  A
C638        C646   1.388       .  A
C639        C651   1.422       .  A
C639        C647   1.386       .  A
C640        C654   1.424   1_554  A
C640        C648   1.388       .  A
C641        C649   1.388       .  A
C641        C652   1.422       .  A
C642        C650   1.386       .  A
C642        C653   1.421   1_554  A
C643        H655   1.082       .  S
C643        C644   1.377       .  A
C644        H656   1.082       .  S
C645        H657   1.082       .  S
C645        C646   1.379       .  A
C646        H658   1.082       .  S
C647        H659   1.082       .  S
C647        C648   1.375       .  A
C648        H660   1.082       .  S
C649        H661   1.082       .  S
C649        C650   1.375       .  A
C650        H662   1.083       .  S
N665        C670   1.356       .  A
N665        C669   1.357       .  A
N665        H697   1.032       .  S
N666        C673   1.355       .  A
N666        C674   1.355       .  A
N667        C672   1.358       .  A
N667        C671   1.357       .  A
N667        H698   1.034       .  S
N668        C675   1.355       .  A
N668        C676   1.356       .  A
C669        C677   1.387       .  A
C669        C685   1.424       .  A
C670        C686   1.425       .  A
C670        C678   1.389       .  A
C671        C679   1.387       .  A
C671        C688   1.424       .  A
C672        C687   1.425       .  A
C672        C680   1.388       .  A
C673        C685   1.421       .  A
C673        C681   1.387       .  A
C674        C688   1.421       .  A
C674        C682   1.387       .  A
C675        C683   1.387       .  A
C675        C686   1.422       .  A
C676        C684   1.387       .  A
C676        C687   1.422       .  A
C677        H689   1.082       .  S
C677        C678   1.378       .  A
C678        H690   1.082       .  S
C679        H691   1.082       .  S
C679        C680   1.379       .  A
C680        H692   1.082       .  S
C681        H693   1.082       .  S
C681        C682   1.374       .  A
C682        H694   1.082       .  S
C683        H695   1.082       .  S
C683        C684   1.377       .  A
C684        H696   1.083       .  S
N699        C704   1.356       .  A
N699        C703   1.359       .  A
N699        H731   1.034       .  S
N700        C707   1.354       .  A
N700        C708   1.353       .  A
N701        C706   1.356       .  A
N701        C705   1.355       .  A
N701        H732   1.029       .  S
N702        C709   1.353       .  A
N702        C710   1.355       .  A
C703        C711   1.386       .  A
C703        C719   1.423       .  A
C704        C720   1.426       .  A
C704        C712   1.389       .  A
C705        C713   1.388       .  A
C705        C722   1.424       .  A
C706        C721   1.425       .  A
C706        C714   1.388       .  A
C707        C719   1.419       .  A
C707        C715   1.387       .  A
C708        C722   1.421       .  A
C708        C716   1.388       .  A
C709        C717   1.388       .  A
C709        C720   1.422       .  A
C710        C718   1.386       .  A
C710        C721   1.422       .  A
C711        H723   1.082       .  S
C711        C712   1.377       .  A
C712        H724   1.082       .  S
C713        H725   1.082       .  S
C713        C714   1.377       .  A
C714        H726   1.083       .  S
C715        H727   1.082       .  S
C715        C716   1.372       .  A
C716        H728   1.082       .  S
C717        H729   1.082       .  S
C717        C718   1.375       .  A
C718        H730   1.083       .  S
C733        H740   1.084       .  S
C733        C734   1.404       .  A
C733        C738   1.400       .  A
C734        C735   1.422       .  A
C735        C736   1.409       .  A
C735        C742   1.507       .  S
C736        H741   1.084       .  S
C736        C737   1.400       .  A
C737        C738   1.415       .  A
C738        C739   1.509       .  S
C739        H743   1.111       .  S
C739        H744   1.110       .  S
C739        H745   1.109       .  S
C742        H746   1.108       .  S
C742        H747   1.111       .  S
C742        H748   1.111       .  S
C749        H756   1.084       .  S
C749        C750   1.397       .  A
C749        C754   1.404       .  A
C750        C751   1.413       .  A
C751        C752   1.402       .  A
C751        C758   1.508       .  S
C752        H757   1.084       .  S
C752        C753   1.405       .  A
C753        C754   1.422       .  A
C754        C755   1.506       .  S
C755        H759   1.111       .  S
C755        H760   1.110       .  S
C755        H761   1.105       .  S
C758        H762   1.110       .  S
C758        H763   1.108       .  S
C758        H764   1.111       .  S
C765        H772   1.084       .  S
C765        C766   1.398       .  A
C765        C770   1.404       .  A
C766        C767   1.412       .  A
C767        C768   1.401       .  A
C767        C774   1.509       .  S
C768        H773   1.084       .  S
C768        C769   1.405       .  A
C769        C770   1.421       .  A
C770        C771   1.508       .  S
C771        H775   1.111       .  S
C771        H776   1.110       .  S
C771        H777   1.110       .  S
C774        H778   1.110       .  S
C774        H779   1.110       .  S
C774        H780   1.111       .  S
C781        H788   1.084       .  S
C781        C782   1.410       .  A
C781        C786   1.410       .  A
C782        C783   1.416       .  A
C783        C784   1.400   1_545  A
C783        C790   1.510       .  S
C784        H789   1.084       .  S
C784        C785   1.406       .  A
C785        C786   1.411   1_565  A
C786        C787   1.506       .  S
C787        H791   1.111       .  S
C787        H792   1.110       .  S
C787        H793   1.110   1_545  S
C790        H794   1.108       .  S
C790        H795   1.110       .  S
C790        H796   1.111   1_545  S
C797        H804   1.085   1_655  S
C797        C798   1.401       .  A
C797        C802   1.403       .  A
C798        C799   1.407       .  A
C799        C800   1.406       .  A
C799        C806   1.506       .  S
C800        H805   1.083       .  S
C800        C801   1.412       .  A
C801        C802   1.423       .  A
C802        C803   1.509       .  S
C803        H807   1.111       .  S
C803        H808   1.110       .  S
C803        H809   1.109       .  S
C806        H810   1.111   1_655  S
C806        H811   1.110       .  S
C806        H812   1.111       .  S
C813        H820   1.084       .  S
C813        C814   1.411       .  A
C813        C818   1.403       .  A
C814        C815   1.423       .  A
C815        C816   1.403       .  A
C815        C822   1.508       .  S
C816        H821   1.085   1_655  S
C816        C817   1.398       .  A
C817        C818   1.407       .  A
C818        C819   1.507       .  S
C819        H823   1.111       .  S
C819        H824   1.110       .  S
C819        H825   1.110   1_655  S
C822        H826   1.107       .  S
C822        H827   1.110       .  S
C822        H828   1.111       .  S
C829        H836   1.083       .  S
C829        C830   1.410       .  A
C829        C834   1.401       .  A
C830        C831   1.425       .  A
C831        C832   1.407       .  A
C831        C838   1.509       .  S
C832        H837   1.085       .  S
C832        C833   1.398       .  A
C833        C834   1.408       .  A
C834        C835   1.508       .  S
C835        H839   1.111       .  S
C835        H840   1.110       .  S
C835        H841   1.109       .  S
C838        H842   1.110       .  S
C838        H843   1.110       .  S
C838        H844   1.111       .  S
C845        H852   1.084       .  S
C845        C846   1.404       .  A
C845        C850   1.402       .  A
C846        C847   1.424       .  A
C847        C848   1.407       .  A
C847        C854   1.507       .  S
C848        H853   1.084       .  S
C848        C849   1.398       .  A
C849        C850   1.415       .  A
C850        C851   1.510       .  S
C851        H855   1.111       .  S
C851        H856   1.108       .  S
C851        H857   1.110       .  S
C854        H858   1.106       .  S
C854        H859   1.110       .  S
C854        H860   1.111       .  S
C861        H868   1.085       .  S
C861        C862   1.400       .  A
C861        C866   1.404       .  A
C862        C863   1.405       .  A
C863        C864   1.401       .  A
C863        C870   1.507       .  S
C864        H869   1.083       .  S
C864        C865   1.411       .  A
C865        C866   1.422       .  A
C866        C867   1.509       .  S
C867        H871   1.111       .  S
C867        H872   1.110       .  S
C867        H873   1.110       .  S
C870        H874   1.110       .  S
C870        H875   1.110       .  S
C870        H876   1.110       .  S
C877        H884   1.084       .  S
C877        C878   1.409       .  A
C877        C882   1.404       .  A
C878        C879   1.410       .  A
C879        C880   1.400       .  A
C879        C886   1.508       .  S
C880        H885   1.085       .  S
C880        C881   1.409       .  A
C881        C882   1.409       .  A
C882        C883   1.506       .  S
C883        H887   1.111       .  S
C883        H888   1.111       .  S
C883        H889   1.110       .  S
C886        H890   1.111       .  S
C886        H891   1.107       .  S
C886        H892   1.111       .  S
C893        H900   1.085       .  S
C893        C894   1.404       .  A
C893        C898   1.397       .  A
C894        C895   1.423       .  A
C895        C896   1.404       .  A
C895        C902   1.508       .  S
C896        H901   1.085       .  S
C896        C897   1.398       .  A
C897        C898   1.414       .  A
C898        C899   1.509       .  S
C899        H903   1.111       .  S
C899        H904   1.111       .  S
C899        H905   1.108       .  S
C902        H906   1.110       .  S
C902        H907   1.110       .  S
C902        H908   1.111       .  S
C909        H916   1.085   1_545  S
C909        C910   1.400       .  A
C909        C914   1.403       .  A
C910        C911   1.406       .  A
C911        C912   1.402       .  A
C911        C918   1.507       .  S
C912        H917   1.083       .  S
C912        C913   1.409       .  A
C913        C914   1.421       .  A
C914        C915   1.510       .  S
C915        H919   1.111       .  S
C915        H920   1.110       .  S
C915        H921   1.110       .  S
C918        H922   1.110       .  S
C918        H923   1.110   1_545  S
C918        H924   1.111       .  S
C925        H932   1.085       .  S
C925        C926   1.400       .  A
C925        C930   1.404       .  A
C926        C927   1.406       .  A
C927        C928   1.402       .  A
C927        C934   1.507       .  S
C928        H933   1.084       .  S
C928        C929   1.410       .  A
C929        C930   1.422       .  A
C930        C931   1.508       .  S
C931        H935   1.111       .  S
C931        H936   1.110       .  S
C931        H937   1.108       .  S
C934        H938   1.110       .  S
C934        H939   1.110       .  S
C934        H940   1.111       .  S
C941        H948   1.082       .  S
C941        C942   1.409       .  A
C941        C946   1.401       .  A
C942        C943   1.419       .  A
C943        C944   1.404       .  A
C943        C950   1.509       .  S
C944        H949   1.085       .  S
C944        C945   1.402       .  A
C945        C946   1.409       .  A
C946        C947   1.507       .  S
C947        H951   1.111       .  S
C947        H952   1.108       .  S
C947        H953   1.111       .  S
C950        H954   1.110       .  S
C950        H955   1.109       .  S
C950        H956   1.111       .  S
C957        H964   1.083       .  S
C957        C958   1.412       .  A
C957        C962   1.406       .  A
C958        C959   1.421       .  A
C959        C960   1.405       .  A
C959        C966   1.508       .  S
C960        H965   1.085   1_655  S
C960        C961   1.402   1_655  A
C961        C962   1.408   1_455  A
C962        C963   1.507       .  S
C963        H967   1.111       .  S
C963        H968   1.111   1_655  S
C963        H969   1.110       .  S
C966        H970   1.110       .  S
C966        H971   1.108       .  S
C966        H972   1.111       .  S
C973        H980   1.084       .  S
C973        C974   1.409       .  A
C973        C978   1.404       .  A
C974        C975   1.415       .  A
C975        C976   1.401       .  A
C975        C982   1.509       .  S
C976        H981   1.085       .  S
C976        C977   1.405       .  A
C977        C978   1.407       .  A
C978        C979   1.506       .  S
C979        H983   1.111       .  S
C979        H984   1.110       .  S
C979        H985   1.111       .  S
C982        H986   1.108       .  S
C982        H987   1.110       .  S
C982        H988   1.111       .  S
C989        H996   1.084       .  S
C989        C990   1.411       .  A
C989        C994   1.408       .  A
C990        C991   1.415       .  A
C991        C992   1.399       .  A
C991        C998   1.510       .  S
C992        H997   1.085       .  S
C992        C993   1.404       .  A
C993        C994   1.408       .  A
C994        C995   1.506       .  S
C995        H999   1.111       .  S
C995       H1000   1.110       .  S
C995       H1001   1.110       .  S
C998       H1002   1.108       .  S
C998       H1003   1.110       .  S
C998       H1004   1.111       .  S
C1005      H1012   1.084       .  S
C1005      C1006   1.410       .  A
C1005      C1010   1.405       .  A
C1006      C1007   1.415       .  A
C1007      C1008   1.401       .  A
C1007      C1014   1.509       .  S
C1008      H1013   1.085       .  S
C1008      C1009   1.404       .  A
C1009      C1010   1.407       .  A
C1010      C1011   1.506       .  S
C1011      H1015   1.111       .  S
C1011      H1016   1.110       .  S
C1011      H1017   1.110       .  S
C1014      H1018   1.108       .  S
C1014      H1019   1.110       .  S
C1014      H1020   1.111       .  S
C1021      H1028   1.084       .  S
C1021      C1022   1.410       .  A
C1021      C1026   1.403       .  A
C1022      C1023   1.415       .  A
C1023      C1024   1.400   1_545  A
C1023      C1030   1.509       .  S
C1024      H1029   1.085       .  S
C1024      C1025   1.404       .  A
C1025      C1026   1.406   1_565  A
C1026      C1027   1.506       .  S
C1027      H1031   1.111       .  S
C1027      H1032   1.110       .  S
C1027      H1033   1.110       .  S
C1030      H1034   1.110       .  S
C1030      H1035   1.110       .  S
C1030      H1036   1.111   1_545  S
C1037      H1044   1.084       .  S
C1037      C1038   1.409       .  A
C1037      C1042   1.410       .  A
C1038      C1039   1.406       .  A
C1039      C1040   1.399       .  A
C1039      C1046   1.507       .  S
C1040      H1045   1.084       .  S
C1040      C1041   1.411       .  A
C1041      C1042   1.413       .  A
C1042      C1043   1.506       .  S
C1043      H1047   1.111       .  S
C1043      H1048   1.110       .  S
C1043      H1049   1.110       .  S
C1046      H1050   1.110       .  S
C1046      H1051   1.107       .  S
C1046      H1052   1.111       .  S
C1053      H1060   1.084       .  S
C1053      C1054   1.405       .  A
C1053      C1058   1.401       .  A
C1054      C1055   1.422       .  A
C1055      C1056   1.406       .  A
C1055      C1062   1.507       .  S
C1056      H1061   1.085       .  S
C1056      C1057   1.398       .  A
C1057      C1058   1.414       .  A
C1058      C1059   1.508       .  S
C1059      H1063   1.111       .  S
C1059      H1064   1.109       .  S
C1059      H1065   1.110       .  S
C1062      H1066   1.110       .  S
C1062      H1067   1.110       .  S
C1062      H1068   1.111       .  S
C1069      H1076   1.084       .  S
C1069      C1070   1.411       .  A
C1069      C1074   1.403       .  A
C1070      C1071   1.421       .  A
C1071      C1072   1.405       .  A
C1071      C1078   1.508       .  S
C1072      H1077   1.085       .  S
C1072      C1073   1.401       .  A
C1073      C1074   1.410       .  A
C1074      C1075   1.508       .  S
C1075      H1079   1.110       .  S
C1075      H1080   1.108       .  S
C1075      H1081   1.110       .  S
C1078      H1082   1.108       .  S
C1078      H1083   1.110       .  S
C1078      H1084   1.111       .  S
C1085      H1092   1.084       .  S
C1085      C1086   1.397       .  A
C1085      C1090   1.405       .  A
C1086      C1087   1.412       .  A
C1087      C1088   1.402       .  A
C1087      C1094   1.509       .  S
C1088      H1093   1.084       .  S
C1088      C1089   1.407       .  A
C1089      C1090   1.423       .  A
C1090      C1091   1.508       .  S
C1091      H1095   1.111       .  S
C1091      H1096   1.109       .  S
C1091      H1097   1.110       .  S
C1094      H1098   1.108       .  S
C1094      H1099   1.110       .  S
C1094      H1100   1.111       .  S
C1101      H1108   1.084       .  S
C1101      C1102   1.413       .  A
C1101      C1106   1.404       .  A
C1102      C1103   1.420       .  A
C1103      C1104   1.402       .  A
C1103      C1110   1.508       .  S
C1104      H1109   1.085       .  S
C1104      C1105   1.401       .  A
C1105      C1106   1.406       .  A
C1106      C1107   1.507       .  S
C1107      H1111   1.111       .  S
C1107      H1112   1.110       .  S
C1107      H1113   1.110       .  S
C1110      H1114   1.108       .  S
C1110      H1115   1.111       .  S
C1110      H1116   1.111       .  S
C1117      H1124   1.085       .  S
C1117      C1118   1.406       .  A
C1117      C1122   1.399       .  A
C1118      C1119   1.408       .  A
C1119      C1120   1.403       .  A
C1119      C1126   1.507       .  S
C1120      H1125   1.084       .  S
C1120      C1121   1.410       .  A
C1121      C1122   1.414       .  A
C1122      C1123   1.510       .  S
C1123      H1127   1.111       .  S
C1123      H1128   1.110       .  S
C1123      H1129   1.109       .  S
C1126      H1130   1.110       .  S
C1126      H1131   1.110       .  S
C1126      H1132   1.111       .  S
C1133      H1140   1.085       .  S
C1133      C1134   1.401       .  A
C1133      C1138   1.401       .  A
C1134      C1135   1.406       .  A
C1135      C1136   1.402       .  A
C1135      C1142   1.507       .  S
C1136      H1141   1.083       .  S
C1136      C1137   1.410       .  A
C1137      C1138   1.418       .  A
C1138      C1139   1.509       .  S
C1139      H1143   1.111       .  S
C1139      H1144   1.108       .  S
C1139      H1145   1.110       .  S
C1142      H1146   1.110       .  S
C1142      H1147   1.111       .  S
C1142      H1148   1.111       .  S
C1149      H1156   1.084       .  S
C1149      C1150   1.412       .  A
C1149      C1154   1.408       .  A
C1150      C1151   1.410       .  A
C1151      C1152   1.399       .  A
C1151      C1158   1.508       .  S
C1152      H1157   1.085       .  S
C1152      C1153   1.408       .  A
C1153      C1154   1.409       .  A
C1154      C1155   1.506       .  S
C1155      H1159   1.111       .  S
C1155      H1160   1.110       .  S
C1155      H1161   1.110       .  S
C1158      H1162   1.107       .  S
C1158      H1163   1.110       .  S
C1158      H1164   1.111       .  S
C1165      H1172   1.084       .  S
C1165      C1166   1.408       .  A
C1165      C1170   1.400       .  A
C1166      C1167   1.425       .  A
C1167      C1168   1.407       .  A
C1167      C1174   1.510       .  S
C1168      H1173   1.085       .  S
C1168      C1169   1.399       .  A
C1169      C1170   1.410       .  A
C1170      C1171   1.508   1_545  S
C1171      H1175   1.110   1_565  S
C1171      H1176   1.109       .  S
C1171      H1177   1.110       .  S
C1174      H1178   1.110       .  S
C1174      H1179   1.110       .  S
C1174      H1180   1.111       .  S
C1181      H1188   1.083       .  S
C1181      C1182   1.411       .  A
C1181      C1186   1.403       .  A
C1182      C1183   1.422       .  A
C1183      C1184   1.406       .  A
C1183      C1190   1.509       .  S
C1184      H1189   1.085   1_655  S
C1184      C1185   1.401       .  A
C1185      C1186   1.406       .  A
C1186      C1187   1.507       .  S
C1187      H1191   1.111       .  S
C1187      H1192   1.111   1_655  S
C1187      H1193   1.110       .  S
C1190      H1194   1.110       .  S
C1190      H1195   1.109       .  S
C1190      H1196   1.111       .  S
C1197      H1204   1.083       .  S
C1197      C1198   1.411       .  A
C1197      C1202   1.406       .  A
C1198      C1199   1.422       .  A
C1199      C1200   1.407       .  A
C1199      C1206   1.509       .  S
C1200      H1205   1.085       .  S
C1200      C1201   1.403       .  A
C1201      C1202   1.407       .  A
C1202      C1203   1.507       .  S
C1203      H1207   1.111       .  S
C1203      H1208   1.111       .  S
C1203      H1209   1.110       .  S
C1206      H1210   1.110       .  S
C1206      H1211   1.109       .  S
C1206      H1212   1.111       .  S
C1213      H1220   1.085       .  S
C1213      C1214   1.405       .  A
C1213      C1218   1.403       .  A
C1214      C1215   1.407       .  A
C1215      C1216   1.403       .  A
C1215      C1222   1.507       .  S
C1216      H1221   1.084       .  S
C1216      C1217   1.410       .  A
C1217      C1218   1.416       .  A
C1218      C1219   1.509       .  S
C1219      H1223   1.111       .  S
C1219      H1224   1.110       .  S
C1219      H1225   1.109       .  S
C1222      H1226   1.111       .  S
C1222      H1227   1.110       .  S
C1222      H1228   1.111       .  S
C1229      H1236   1.085       .  S
C1229      C1230   1.398       .  A
C1229      C1234   1.406       .  A
C1230      C1231   1.409       .  A
C1231      C1232   1.404       .  A
C1231      C1238   1.508       .  S
C1232      H1237   1.084       .  S
C1232      C1233   1.410       .  A
C1233      C1234   1.426       .  A
C1234      C1235   1.509       .  S
C1235      H1239   1.111       .  S
C1235      H1240   1.110       .  S
C1235      H1241   1.110       .  S
C1238      H1242   1.110       .  S
C1238      H1243   1.110       .  S
C1238      H1244   1.111       .  S
C1245      H1252   1.083       .  S
C1245      C1246   1.411       .  A
C1245      C1250   1.404       .  A
C1246      C1247   1.421       .  A
C1247      C1248   1.403       .  A
C1247      C1254   1.509       .  S
C1248      H1253   1.085       .  S
C1248      C1249   1.399       .  A
C1249      C1250   1.407       .  A
C1250      C1251   1.507       .  S
C1251      H1255   1.111       .  S
C1251      H1256   1.110       .  S
C1251      H1257   1.111       .  S
C1254      H1258   1.108       .  S
C1254      H1259   1.110       .  S
C1254      H1260   1.111       .  S
C1261      H1268   1.084       .  S
C1261      C1262   1.398       .  A
C1261      C1266   1.406       .  A
C1262      C1263   1.414       .  A
C1263      C1264   1.397       .  A
C1263      C1270   1.509       .  S
C1264      H1269   1.084       .  S
C1264      C1265   1.402       .  A
C1265      C1266   1.422       .  A
C1266      C1267   1.507       .  S
C1267      H1271   1.111       .  S
C1267      H1272   1.106       .  S
C1267      H1273   1.110       .  S
C1270      H1274   1.111       .  S
C1270      H1275   1.109       .  S
C1270      H1276   1.110       .  S
C1277      H1284   1.084       .  S
C1277      C1278   1.412       .  A
C1277      C1282   1.406       .  A
C1278      C1279   1.419       .  A
C1279      C1280   1.405       .  A
C1279      C1286   1.509       .  S
C1280      H1285   1.085       .  S
C1280      C1281   1.405       .  A
C1281      C1282   1.408       .  A
C1282      C1283   1.507       .  S
C1283      H1287   1.111       .  S
C1283      H1288   1.110       .  S
C1283      H1289   1.111       .  S
C1286      H1290   1.109       .  S
C1286      H1291   1.110       .  S
C1286      H1292   1.111       .  S
C1293      H1300   1.085       .  S
C1293      C1294   1.400       .  A
C1293      C1298   1.403       .  A
C1294      C1295   1.407       .  A
C1295      C1296   1.406       .  A
C1295      C1302   1.506       .  S
C1296      H1301   1.084       .  S
C1296      C1297   1.413       .  A
C1297      C1298   1.422       .  A
C1298      C1299   1.509       .  S
C1299      H1303   1.111       .  S
C1299      H1304   1.110       .  S
C1299      H1305   1.110       .  S
C1302      H1306   1.110       .  S
C1302      H1307   1.110       .  S
C1302      H1308   1.111       .  S
C1309      H1316   1.084       .  S
C1309      C1310   1.397       .  A
C1309      C1314   1.404       .  A
C1310      C1311   1.415       .  A
C1311      C1312   1.401       .  A
C1311      C1318   1.508       .  S
C1312      H1317   1.085       .  S
C1312      C1313   1.403       .  A
C1313      C1314   1.421       .  A
C1314      C1315   1.508       .  S
C1315      H1319   1.111       .  S
C1315      H1320   1.107       .  S
C1315      H1321   1.110       .  S
C1318      H1322   1.109       .  S
C1318      H1323   1.111       .  S
C1318      H1324   1.110       .  S
C1325      H1332   1.085       .  S
C1325      C1326   1.402       .  A
C1325      C1330   1.404       .  A
C1326      C1327   1.407       .  A
C1327      C1328   1.403       .  A
C1327      C1334   1.507       .  S
C1328      H1333   1.083       .  S
C1328      C1329   1.410       .  A
C1329      C1330   1.419       .  A
C1330      C1331   1.509       .  S
C1331      H1335   1.111       .  S
C1331      H1336   1.110       .  S
C1331      H1337   1.110       .  S
C1334      H1338   1.110       .  S
C1334      H1339   1.111       .  S
C1334      H1340   1.111       .  S
C1341      H1348   1.084       .  S
C1341      C1342   1.409       .  A
C1341      C1346   1.407       .  A
C1342      C1343   1.413       .  A
C1343      C1344   1.400       .  A
C1343      C1350   1.509       .  S
C1344      H1349   1.085       .  S
C1344      C1345   1.405       .  A
C1345      C1346   1.409       .  A
C1346      C1347   1.506       .  S
C1347      H1351   1.111       .  S
C1347      H1352   1.110       .  S
C1347      H1353   1.110       .  S
C1350      H1354   1.109       .  S
C1350      H1355   1.110       .  S
C1350      H1356   1.111       .  S
C1357      H1364   1.085       .  S
C1357      C1358   1.401       .  A
C1357      C1362   1.403       .  A
C1358      C1359   1.408       .  A
C1359      C1360   1.407       .  A
C1359      C1366   1.506       .  S
C1360      H1365   1.083       .  S
C1360      C1361   1.410       .  A
C1361      C1362   1.420       .  A
C1362      C1363   1.508       .  S
C1363      H1367   1.111       .  S
C1363      H1368   1.108       .  S
C1363      H1369   1.110       .  S
C1366      H1370   1.110       .  S
C1366      H1371   1.110       .  S
C1366      H1372   1.111       .  S
C1373      H1380   1.084       .  S
C1373      C1374   1.410       .  A
C1373      C1378   1.405       .  A
C1374      C1375   1.419       .  A
C1375      C1376   1.402       .  A
C1375      C1382   1.509       .  S
C1376      H1381   1.085       .  S
C1376      C1377   1.403       .  A
C1377      C1378   1.408       .  A
C1378      C1379   1.507       .  S
C1379      H1383   1.111       .  S
C1379      H1384   1.110       .  S
C1379      H1385   1.111       .  S
C1382      H1386   1.108       .  S
C1382      H1387   1.110       .  S
C1382      H1388   1.111       .  S
C1389      H1396   1.084       .  S
C1389      C1390   1.399       .  A
C1389      C1394   1.408       .  A
C1390      C1391   1.413       .  A
C1391      C1392   1.402       .  A
C1391      C1398   1.509       .  S
C1392      H1397   1.083       .  S
C1392      C1393   1.406       .  A
C1393      C1394   1.424       .  A
C1394      C1395   1.509       .  S
C1395      H1399   1.111       .  S
C1395      H1400   1.110       .  S
C1395      H1401   1.110       .  S
C1398      H1402   1.110       .  S
C1398      H1403   1.109       .  S
C1398      H1404   1.111       .  S
C1405      H1412   1.085       .  S
C1405      C1406   1.403       .  A
C1405      C1410   1.402       .  A
C1406      C1407   1.410       .  A
C1407      C1408   1.409       .  A
C1407      C1414   1.506       .  S
C1408      H1413   1.084       .  S
C1408      C1409   1.410       .  A
C1409      C1410   1.415       .  A
C1410      C1411   1.508       .  S
C1411      H1415   1.111       .  S
C1411      H1416   1.109       .  S
C1411      H1417   1.110       .  S
C1414      H1418   1.110       .  S
C1414      H1419   1.110       .  S
C1414      H1420   1.111       .  S
C1421      H1428   1.085       .  S
C1421      C1422   1.397       .  A
C1421      C1426   1.405       .  A
C1422      C1423   1.407       .  A
C1423      C1424   1.403       .  A
C1423      C1430   1.508       .  S
C1424      H1429   1.084       .  S
C1424      C1425   1.411       .  A
C1425      C1426   1.424       .  A
C1426      C1427   1.504       .  S
C1427      H1431   1.111       .  S
C1427      H1432   1.110       .  S
C1427      H1433   1.107       .  S
C1430      H1434   1.111       .  S
C1430      H1435   1.110       .  S
C1430      H1436   1.111       .  S
C1437      H1444   1.085       .  S
C1437      C1438   1.403       .  A
C1437      C1442   1.404       .  A
C1438      C1439   1.407       .  A
C1439      C1440   1.405       .  A
C1439      C1446   1.507       .  S
C1440      H1445   1.084       .  S
C1440      C1441   1.411       .  A
C1441      C1442   1.420       .  A
C1442      C1443   1.509       .  S
C1443      H1447   1.111       .  S
C1443      H1448   1.110       .  S
C1443      H1449   1.108       .  S
C1446      H1450   1.111       .  S
C1446      H1451   1.110       .  S
C1446      H1452   1.111       .  S
C1453      H1460   1.085       .  S
C1453      C1454   1.408       .  A
C1453      C1458   1.399       .  A
C1454      C1455   1.410       .  A
C1455      C1456   1.407       .  A
C1455      C1462   1.505       .  S
C1456      H1461   1.084       .  S
C1456      C1457   1.409       .  A
C1457      C1458   1.412       .  A
C1458      C1459   1.509       .  S
C1459      H1463   1.111       .  S
C1459      H1464   1.109       .  S
C1459      H1465   1.111       .  S
C1462      H1466   1.110       .  S
C1462      H1467   1.110       .  S
C1462      H1468   1.111       .  S
C1469      H1476   1.085       .  S
C1469      C1470   1.405       .  A
C1469      C1474   1.404       .  A
C1470      C1471   1.408       .  A
C1471      C1472   1.405       .  A
C1471      C1478   1.507       .  S
C1472      H1477   1.084       .  S
C1472      C1473   1.411       .  A
C1473      C1474   1.416       .  A
C1474      C1475   1.507       .  S
C1475      H1479   1.111       .  S
C1475      H1480   1.110       .  S
C1475      H1481   1.108       .  S
C1478      H1482   1.110       .  S
C1478      H1483   1.110       .  S
C1478      H1484   1.111       .  S
C1485      H1492   1.085       .  S
C1485      C1486   1.399       .  A
C1485      C1490   1.406       .  A
C1486      C1487   1.409       .  A
C1487      C1488   1.400       .  A
C1487      C1494   1.508       .  S
C1488      H1493   1.084       .  S
C1488      C1489   1.410       .  A
C1489      C1490   1.425       .  A
C1490      C1491   1.509       .  S
C1491      H1495   1.111       .  S
C1491      H1496   1.110       .  S
C1491      H1497   1.110       .  S
C1494      H1498   1.110       .  S
C1494      H1499   1.109       .  S
C1494      H1500   1.110       .  S
