geometry optimzed in LAMMPS
_audit_creation_date              2020-12-01 
_audit_creation_method            'lammps2cif' 
_symmetry_space_group_name_H-M    'P1' 
_symmetry_Int_Tables_number       1 
_symmetry_cell_setting            triclinic 
loop_ 
_symmetry_equiv_pos_as_xyz 
  x,y,z 
_cell_length_a                    56.54774229 
_cell_length_b                    56.15566881950674 
_cell_length_c                    46.69478974549256 
_cell_angle_alpha                 96.49644916167267 
_cell_angle_beta                  84.09920982016254 
_cell_angle_gamma                 123.26724308555573 
loop_ 
_atom_site_label 
_atom_site_type_symbol 
_atom_site_fract_x 
_atom_site_fract_y 
_atom_site_fract_z 
_atom_site_charge 
C1          C  0.33436216  0.14413396  0.98146963     0.03600
C2          C  0.35224181  0.17397144  0.98119867    -0.12600
C3          C  0.34112514  0.19112483  0.98579302     0.01100
C4          C  0.31200848  0.17847141  0.99134055    -0.11100
C5          C  0.29363270  0.14864783  0.99079980     0.03600
C6          C  0.30500246  0.13155489  0.98625222    -0.10500
H7          H  0.37472560  0.18383006  0.97617983     0.09200
H8          H  0.30344799  0.19181888  0.99412067     0.06700
H9          H  0.29099006  0.10851452  0.98522064     0.06500
C10         C  0.33995097  0.15125454  0.22986586     0.03600
C11         C  0.31038110  0.13570091  0.22945923    -0.12600
C12         C  0.29630278  0.14894692  0.22465978     0.01100
C13         C  0.31210493  0.17856987  0.22205430    -0.11100
C14         C  0.34161274  0.19467122  0.22395880     0.03600
C15         C  0.35549542  0.18091482  0.22773510    -0.10500
H16         H  0.29838582  0.11293882  0.23206205     0.09200
H17         H  0.30161549  0.18908300  0.21779160     0.06700
H18         H  0.37840918  0.19305983  0.22738249     0.06500
C19         C  0.15224917  0.34503241  0.31368614     0.03600
C20         C  0.13633065  0.31507893  0.30943766    -0.12600
C21         C  0.14973073  0.29995488  0.30722910     0.01100
C22         C  0.17942243  0.31514773  0.30742914    -0.11100
C23         C  0.19551254  0.34496593  0.31169100     0.03600
C24         C  0.18183386  0.35978235  0.31486460    -0.10500
H25         H  0.11342810  0.30349027  0.31006545     0.09200
H26         H  0.18988645  0.30362632  0.30621874     0.06700
H27         H  0.19422793  0.38280482  0.31880041     0.06500
C28         C  0.15631602  0.35565951  0.06275181     0.03600
C29         C  0.18585564  0.37070781  0.06431472    -0.12600
C30         C  0.19922883  0.35600321  0.06567478     0.01100
C31         C  0.18290834  0.32614207  0.06575813    -0.11100
C32         C  0.15340817  0.31072852  0.06385185     0.03600
C33         C  0.14060116  0.32567583  0.06064061    -0.10500
H34         H  0.19825542  0.39381716  0.06644383     0.09200
H35         H  0.19323092  0.31508437  0.06855366     0.06700
H36         H  0.11802644  0.31399746  0.05785939     0.06500
N37         N  0.06092097  0.04400200  0.42361204    -0.05700
N38         N  0.07938349  0.05298570  0.44373864    -0.57800
N39         N  0.04525495  0.05953351  0.36371732    -0.05400
N40         N  0.05374436  0.07792147  0.34377705    -0.59900
N41         N  0.03664683  0.06801712  0.38758832    -0.05000
N42         N  0.03905470  0.09231064  0.38435251    -0.57800
N43         N  0.06922933  0.03518537  0.39977500    -0.04600
N44         N  0.09350042  0.03794100  0.40321902    -0.60300
C45         C  0.09957349  0.04896626  0.43077657     0.96500
C46         C  0.04961691  0.09822269  0.35688266     0.96300
N47         N  0.49691399  0.48246798  0.32767299    -0.05900
N48         N  0.48616502  0.47726114  0.30229564    -0.58400
N49         N  0.04412277  0.48214489  0.36947236    -0.04000
N50         N  0.06516941  0.47815223  0.36463827    -0.59600
N51         N  0.01961254  0.45755517  0.36840036    -0.05900
N52         N  0.02352113  0.43631737  0.36280796    -0.58600
N53         N  0.01842704  0.00338182  0.32284813    -0.03600
N54         N  0.02418877  0.01471593  0.29778836    -0.59700
Mn55       Mn  0.04463531  0.01979881  0.36069354     1.18400
C56         C  0.50563697  0.50044189  0.28804387     0.98600
C57         C  0.05206930  0.44944234  0.36065118     0.99200
N58         N  0.48062666  0.04066722  0.43611019    -0.05900
N59         N  0.47652564  0.06177761  0.43970678    -0.62200
N60         N  0.48131206  0.49129784  0.46808213    -0.04700
N61         N  0.47480438  0.47951691  0.49294407    -0.62900
N62         N  0.00566179  0.01715773  0.46353088    -0.05400
N63         N  0.01697543  0.02341182  0.48879665    -0.62500
N64         N  0.45627243  0.01590788  0.43533836    -0.04300
N65         N  0.43506205  0.01968614  0.43840892    -0.63200
Mn66       Mn  0.02160035  0.04338504  0.42625065     1.10700
C67         C  0.44803786  0.04842700  0.44100672     0.99800
C68         C  0.49630334  0.50498874  0.00941492     0.99900
N69         N  0.46471944  0.42888509  0.40105431    -0.05400
N70         N  0.46130445  0.40391164  0.40281362    -0.60800
N71         N  0.43155913  0.46134703  0.39078268    -0.04700
N72         N  0.40595341  0.45589547  0.38844505    -0.57500
N73         N  0.44004792  0.45288624  0.36676225    -0.06100
N74         N  0.42016281  0.44112388  0.34773981    -0.60400
N75         N  0.45558302  0.43647870  0.42516020    -0.05000
N76         N  0.44566044  0.41673296  0.44382132    -0.57600
Mn77       Mn  0.48019781  0.45466789  0.36368008     1.20200
Mn78       Mn  0.45580065  0.47602592  0.42996708     1.10100
Cl79       Cl  0.50116454  0.49905084  0.39829190    -0.85500
C80         C  0.44948458  0.39662305  0.42963856     0.96800
C81         C  0.39919748  0.44350647  0.36144881     0.96600
N82         N  0.05521623  0.04614746  0.17105237    -0.05700
N83         N  0.07529367  0.05477575  0.18913351    -0.57800
N84         N  0.03546955  0.06415447  0.11680227    -0.05400
N85         N  0.04652346  0.08509279  0.09943934    -0.59900
N86         N  0.02866936  0.07183312  0.14235655    -0.05000
N87         N  0.03518634  0.09834787  0.14289239    -0.57800
N88         N  0.06231994  0.03897646  0.14541887    -0.04600
N89         N  0.08739969  0.04265680  0.14539150    -0.60300
C90         C  0.09513860  0.05232341  0.17282705     0.96500
C91         C  0.04603637  0.10622977  0.11584345     0.96300
N92         N  0.49443981  0.48654049  0.07883670    -0.05900
N93         N  0.48213691  0.48005004  0.05419169    -0.58400
N94         N  0.04480334  0.48841284  0.11607966    -0.04000
N95         N  0.06670660  0.48580728  0.11124279    -0.59600
N96         N  0.02100711  0.46315982  0.11608364    -0.05900
N97         N  0.02617702  0.44281775  0.11099348    -0.58600
N98         N  0.00669596  0.00978189  0.07388428    -0.03600
N99         N  0.01171843  0.02162454  0.04937389    -0.59700
Mn100      Mn  0.03524752  0.02492583  0.10906416     1.18400
C101        C  0.50000510  0.50306123  0.03908980     0.98600
C102        C  0.05475825  0.45725899  0.10821473     0.99200
N103        N  0.47468652  0.04219596  0.19406208    -0.05900
N104        N  0.47005270  0.06286789  0.19988555    -0.62200
N105        N  0.48585050  0.49695030  0.21855415    -0.04700
N106        N  0.48046265  0.48494781  0.24303080    -0.62900
N107        N  0.00259414  0.01664849  0.21419152    -0.05400
N108        N  0.01537276  0.02208233  0.23840521    -0.62500
N109        N  0.45064666  0.01713890  0.19457494    -0.04300
N110        N  0.42915748  0.02025597  0.20076083    -0.63200
Mn111      Mn  0.01564508  0.04471023  0.17884896     1.10700
C112        C  0.44156980  0.04889348  0.20400074     0.99800
C113        C  0.50292894  0.50417604  0.25857762     0.99900
N114        N  0.46708828  0.43392258  0.15244802    -0.05400
N115        N  0.46266189  0.40837723  0.15341066    -0.60800
N116        N  0.43262855  0.46568110  0.14451011    -0.05900
N117        N  0.40775406  0.46208301  0.14271617    -0.57500
N118        N  0.44045420  0.45752699  0.11989015    -0.06100
N119        N  0.42102679  0.44819416  0.10075694    -0.60400
N120        N  0.45862946  0.44151913  0.17701786    -0.05000
N121        N  0.44820993  0.42124916  0.19519132    -0.57600
Mn122      Mn  0.48060661  0.45964425  0.11496492     1.20200
Mn123      Mn  0.45852690  0.48091034  0.18222458     1.10100
Cl124      Cl  0.50243340  0.50461737  0.14874366    -0.85500
C125        C  0.45108602  0.40077998  0.18028764     0.96800
C126        C  0.40078105  0.45127832  0.11528469     0.96600
C127        C  0.08313668  0.16969024  0.06968374    -0.27800
C128        C  0.09058520  0.19232309  0.09063577     0.05800
C129        C  0.08266668  0.18638802  0.11979903     0.25500
C130        C  0.06744877  0.15826475  0.12772401    -0.12200
C131        C  0.06013605  0.13559656  0.10682043    -0.26200
C132        C  0.06809547  0.14154801  0.07761921     0.36300
C133        C  0.10595084  0.22200784  0.08203512     0.05900
F134        F  0.09032717  0.20785842  0.14072308    -0.20000
H135        H  0.06197950  0.15430153  0.15039071     0.15700
F136        F  0.06124395  0.12023620  0.05668404    -0.23700
H137        H  0.08874181  0.17381502  0.04705474     0.17500
C138        C  0.13110769  0.23349434  0.06460670     0.25500
C139        C  0.14576906  0.26196030  0.05767080    -0.12200
C140        C  0.13594558  0.27964602  0.06841641    -0.26300
C141        C  0.11050069  0.26780804  0.08565189     0.36400
C142        C  0.09560757  0.23926541  0.09195511    -0.27900
F143        F  0.14214594  0.21759633  0.05532121    -0.20000
H144        H  0.16515931  0.27031107  0.04429954     0.15700
F145        F  0.10065361  0.28401010  0.09793235    -0.23700
H146        H  0.07613564  0.23073340  0.10524760     0.17500
C147        C  0.33781012  0.41592063  0.06774954    -0.27800
C148        C  0.31812493  0.41848175  0.08641465     0.05800
C149        C  0.32659323  0.43406352  0.11312479     0.25500
C150        C  0.35391758  0.44564951  0.12170251    -0.12200
C151        C  0.37329164  0.44179464  0.10389356    -0.26200
C152        C  0.36528441  0.42745304  0.07639179     0.36300
C153        C  0.28798596  0.40223124  0.07985684     0.05900
F154        F  0.30803434  0.43723261  0.13133735    -0.20000
H155        H  0.35957229  0.45687178  0.14280345     0.15700
F156        F  0.38344800  0.42348557  0.05838895    -0.23700
H157        H  0.33147780  0.40382161  0.04711679     0.17500
C158        C  0.27863804  0.40734076  0.05590781     0.25500
C159        C  0.24962021  0.39234629  0.05132372    -0.12200
C160        C  0.22983179  0.37188485  0.07032888    -0.26300
C161        C  0.23937701  0.36677492  0.09412339     0.36400
C162        C  0.26818256  0.38178694  0.09872770    -0.27900
F163        F  0.29742980  0.42725982  0.03753194    -0.20000
H164        H  0.24256296  0.39656792  0.03293901     0.15700
F165        F  0.22077669  0.34789763  0.11345887    -0.23700
H166        H  0.27510986  0.37765548  0.11728427     0.17500
C167        C  0.10377458  0.37573406  0.09065506    -0.27800
C168        C  0.11464386  0.40129424  0.07771019     0.05800
C169        C  0.13925321  0.41197846  0.05955026     0.25500
C170        C  0.15245520  0.39678589  0.05407609    -0.12200
C171        C  0.14151237  0.37102263  0.06702652    -0.26200
C172        C  0.11714090  0.36087552  0.08572452     0.36300
C173        C  0.10005565  0.41654026  0.08387640     0.05900
F174        F  0.15023326  0.43682340  0.04689008    -0.20000
H175        H  0.17122223  0.40515257  0.03975464     0.15700
F176        F  0.10687733  0.33731853  0.10043800    -0.23700
H177        H  0.08518527  0.36760853  0.10523513     0.17500
C178        C  0.07129259  0.40259027  0.07829128     0.25500
C179        C  0.05672165  0.41597171  0.08649789    -0.12200
C180        C  0.07061414  0.44351878  0.10023225    -0.26300
C181        C  0.09951653  0.45763919  0.10562466     0.36400
C182        C  0.11410628  0.44415876  0.09743614    -0.27900
F183        F  0.05734723  0.37601960  0.06480815    -0.20000
H184        H  0.03455186  0.40482155  0.08186572     0.15700
F185        F  0.11339290  0.48397433  0.11961161    -0.23700
H186        H  0.13616648  0.45493118  0.10236127     0.17500
C187        C  0.12126389  0.22807392  0.33545871    -0.27800
C188        C  0.09924490  0.20956508  0.31716868     0.05800
C189        C  0.09402108  0.22059723  0.29477415     0.25500
C190        C  0.11060815  0.25008392  0.29119322    -0.12200
C191        C  0.13275446  0.26862369  0.30963320    -0.26200
C192        C  0.13787112  0.25724652  0.33181416     0.36300
C193        C  0.08152908  0.17912749  0.32315139     0.05900
F194        F  0.07258827  0.20303936  0.27697880    -0.20000
H195        H  0.10617472  0.25847991  0.27414349     0.15700
F196        F  0.15819955  0.27453307  0.35083009    -0.23700
H197        H  0.12533154  0.21984912  0.35298473     0.17500
C198        C  0.08601933  0.15905487  0.30729647     0.25500
C199        C  0.07430484  0.13206679  0.31757502    -0.12200
C200        C  0.05812264  0.12486870  0.34385376    -0.26300
C201        C  0.05206145  0.14439692  0.35852541     0.36400
C202        C  0.06381803  0.17129050  0.34826077    -0.27900
F203        F  0.10334326  0.16627014  0.28308541    -0.20000
H204        H  0.07912285  0.11737336  0.30571524     0.15700
F205        F  0.03584464  0.13811093  0.38348447    -0.23700
H206        H  0.06030253  0.18665708  0.36076778     0.17500
C207        C  0.32805720  0.43054099  0.34855743    -0.27800
C208        C  0.31425660  0.40302055  0.33457337     0.05800
C209        C  0.32949365  0.38983341  0.32756512     0.25500
C210        C  0.35768012  0.40371676  0.33514623    -0.12200
C211        C  0.37089736  0.43064990  0.35026236    -0.26200
C212        C  0.35599163  0.44413055  0.35659103     0.36300
C213        C  0.28380223  0.38801606  0.32842176     0.05900
F214        F  0.31674413  0.36298041  0.31477083    -0.20000
H215        H  0.36874716  0.39286312  0.33038973     0.15700
F216        F  0.36848599  0.47049535  0.37051510    -0.23700
H217        H  0.31702893  0.44140949  0.35360879     0.17500
C218        C  0.26406430  0.38702962  0.35007808     0.25500
C219        C  0.23556102  0.37345712  0.34417320    -0.12200
C220        C  0.22603313  0.36019720  0.31680049    -0.26300
C221        C  0.24550526  0.36070850  0.29520022     0.36400
C222        C  0.27420553  0.37470119  0.30094776    -0.27900
F223        F  0.27217634  0.39847416  0.37723239    -0.20000
H224        H  0.22069044  0.37276481  0.36122666     0.15700
F225        F  0.23682621  0.34810739  0.26849327    -0.23700
H226        H  0.28900155  0.37537957  0.28384507     0.17500
C227        C  0.11032236  0.43457292  0.34465735    -0.27800
C228        C  0.09467607  0.40501599  0.33755467     0.05800
C229        C  0.06495005  0.39020697  0.33814472     0.25500
C230        C  0.05132219  0.40478660  0.34572259    -0.12200
C231        C  0.06695340  0.43437133  0.35285458    -0.26200
C232        C  0.09673635  0.44919358  0.35212558     0.36300
C233        C  0.10950841  0.38975175  0.33086612     0.05900
F234        F  0.04901941  0.36149780  0.33234981    -0.20000
H235        H  0.02834469  0.39276783  0.34612525     0.15700
F236        F  0.11281947  0.47775402  0.35882305    -0.23700
H237        H  0.13329755  0.44644639  0.34436468     0.17500
C238        C  0.10419805  0.37130369  0.30585702     0.25500
C239        C  0.11809463  0.35677016  0.30036814    -0.12200
C240        C  0.13779210  0.36068341  0.31943092    -0.26300
C241        C  0.14325937  0.37930984  0.34428454     0.36400
C242        C  0.12926450  0.39366513  0.34984869    -0.27900
F243        F  0.08612378  0.36786900  0.28640232    -0.20000
H244        H  0.11374775  0.34267273  0.28098038     0.15700
F245        F  0.16146436  0.38292850  0.36369320    -0.23700
H246        H  0.13352420  0.40757327  0.36936725     0.17500
C247        C  0.39034915  0.13001542  0.24515667    -0.27800
C248        C  0.38206879  0.10637229  0.22523128     0.05800
C249        C  0.35962714  0.09736936  0.20745665     0.25500
C250        C  0.34596412  0.11196014  0.20942533    -0.12200
C251        C  0.35436945  0.13578585  0.22910988    -0.26200
C252        C  0.37665184  0.14469369  0.24708907     0.36300
C253        C  0.39748683  0.09177988  0.22209158     0.05900
F254        F  0.35162013  0.07514331  0.18738078    -0.20000
H255        H  0.32917978  0.10502446  0.19502671     0.15700
F256        F  0.38485467  0.16724105  0.26675662    -0.23700
H257        H  0.40741799  0.13707325  0.25921128     0.17500
C258        C  0.42704098  0.10738690  0.21726357     0.25500
C259        C  0.44119446  0.09324129  0.21191424    -0.12200
C260        C  0.42617696  0.06332209  0.21116138    -0.26300
C261        C  0.39663922  0.04772407  0.21678402     0.36400
C262        C  0.38251018  0.06192781  0.22224351    -0.27900
F263        F  0.44209800  0.13621168  0.21639225    -0.20000
H264        H  0.46392575  0.10576416  0.20770831     0.15700
F265        F  0.38130331  0.01881221  0.21671701    -0.23700
H266        H  0.35974725  0.04957298  0.22626229     0.17500
C267        C  0.39211643  0.27470760  0.23577776    -0.27800
C268        C  0.39062712  0.28393659  0.20972200     0.05800
C269        C  0.37251752  0.26380978  0.18872355     0.25500
C270        C  0.35623481  0.23482915  0.19374417    -0.12200
C271        C  0.35814999  0.22548374  0.21952432    -0.26200
C272        C  0.37618325  0.24561695  0.24059112     0.36300
C273        C  0.40811000  0.31449951  0.20423052     0.05900
F274        F  0.37045994  0.27227220  0.16349076    -0.20000
H275        H  0.34243399  0.21953621  0.17725584     0.15700
F276        F  0.37808320  0.23712449  0.26587097    -0.23700
H277        H  0.40596876  0.29005507  0.25219286     0.17500
C278        C  0.40336277  0.33417919  0.22058169     0.25500
C279        C  0.41844916  0.36263759  0.21353884    -0.12200
C280        C  0.43840275  0.37182223  0.19004066    -0.26300
C281        C  0.44405401  0.35229912  0.17458843     0.36400
C282        C  0.42886808  0.32384485  0.18159121    -0.27900
F283        F  0.38312401  0.32554540  0.24236259    -0.20000
H284        H  0.41365093  0.37716697  0.22573780     0.15700
F285        F  0.46385712  0.36050268  0.15240638    -0.23700
H286        H  0.43295797  0.30893450  0.16905763     0.17500
C287        C  0.22442343  0.09032972  0.19792284    -0.27800
C288        C  0.20768981  0.10094969  0.20876577     0.05800
C289        C  0.21971906  0.12656964  0.22624344     0.25500
C290        C  0.24835893  0.14166335  0.23207463    -0.12200
C291        C  0.26546301  0.13160173  0.22036287    -0.26200
C292        C  0.25308463  0.10554425  0.20334434     0.36300
C293        C  0.17837770  0.08638608  0.19988655     0.05900
F294        F  0.20414698  0.13769946  0.23645023    -0.20000
H295        H  0.25731219  0.16154466  0.24536950     0.15700
F296        F  0.26886775  0.09546697  0.19053301    -0.23700
H297        H  0.21540252  0.07054742  0.18442353     0.17500
C298        C  0.17271271  0.08048631  0.17043732     0.25500
C299        C  0.14528987  0.06837490  0.16193065    -0.12200
C300        C  0.12316151  0.06221537  0.18255820    -0.26300
C301        C  0.12859792  0.06720227  0.21206602     0.36400
C302        C  0.15609796  0.07924299  0.22060592    -0.27900
F303        F  0.19391120  0.08769406  0.14985011    -0.20000
H304        H  0.14159580  0.06479839  0.13903066     0.15700
F305        F  0.10745585  0.06057263  0.23258120    -0.23700
H306        H  0.16010595  0.08326855  0.24344975     0.17500
C307        C  0.36792257  0.10011158  0.44168676    -0.27800
C308        C  0.38848585  0.10585219  0.46055416     0.05800
C309        C  0.39451804  0.12575184  0.48430553     0.25500
C310        C  0.38001897  0.13957129  0.48910465    -0.12200
C311        C  0.35927556  0.13364209  0.47040236    -0.26200
C312        C  0.35341620  0.11393066  0.44648400     0.36300
C313        C  0.40365752  0.09112224  0.45532313     0.05900
F314        F  0.40766288  0.12697908  0.99537729    -0.20000
H315        H  0.37893317  0.15061483  0.00607701     0.15700
F316        F  0.33442332  0.10883047  0.42726488    -0.23700
H317        H  0.36340567  0.08516775  0.42296673     0.17500
C318        C  0.38866071  0.06118596  0.45291377     0.25500
C319        C  0.40324652  0.04743884  0.44822495    -0.12200
C320        C  0.43297435  0.06332173  0.44579388    -0.26300
C321        C  0.44795194  0.09336289  0.44822845     0.36400
C322        C  0.43331900  0.10704828  0.45291882    -0.27900
F323        F  0.35995133  0.04528767  0.45579284    -0.20000
H324        H  0.39122294  0.02431046  0.44663806     0.15700
F325        F  0.47668029  0.10959948  0.44611328    -0.23700
H326        H  0.44516410  0.13018532  0.45454765     0.17500
C327        C  0.40842207  0.33129685  0.47283753    -0.27800
C328        C  0.41572795  0.31329011  0.45716971     0.05800
C329        C  0.43569199  0.32338864  0.43386733     0.25500
C330        C  0.44750477  0.35104366  0.42574678    -0.12200
C331        C  0.43934801  0.36882244  0.44062171    -0.26200
C332        C  0.42001467  0.35888500  0.46462504     0.36300
C333        C  0.39930524  0.28290561  0.46246560     0.05900
F334        F  0.44289983  0.30611603  0.41839749    -0.20000
H335        H  0.46241452  0.35824789  0.40723833     0.15700
F336        F  0.41094871  0.37504217  0.47906833    -0.23700
H337        H  0.37694026  0.31949897  0.98737356     0.17500
C338        C  0.40306688  0.27313689  0.48690652     0.25500
C339        C  0.36300121  0.24247953  0.00266874    -0.12200
C340        C  0.36515299  0.22484389  0.47265214    -0.26300
C341        C  0.36152648  0.23479973  0.44824705     0.36400
C342        C  0.37860787  0.26363350  0.44318112    -0.27900
F343        F  0.38285261  0.29095221  0.01932780    -0.20000
H344        H  0.35395221  0.23623200  0.02419159     0.15700
F345        F  0.34192391  0.21648818  0.42894710    -0.23700
H346        H  0.37554502  0.27105578  0.42431082     0.17500
C347        C  0.16201750  0.08780698  0.47920591    -0.27800
C348        C  0.18192241  0.08448114  0.46192358     0.05800
C349        C  0.17361056  0.06669599  0.43645273     0.25500
C350        C  0.14617509  0.05382286  0.42741751    -0.12200
C351        C  0.12663746  0.05868301  0.44349475    -0.26200
C352        C  0.13444785  0.07495842  0.47014924     0.36300
C353        C  0.21212032  0.10230885  0.46814653     0.05900
F354        F  0.19254767  0.06300823  0.41958653    -0.20000
H355        H  0.14065535  0.04107537  0.40706340     0.15700
F356        F  0.11610302  0.07979152  0.48667695    -0.23700
H357        H  0.16826827  0.10154820  0.49893784     0.17500
C358        C  0.23061410  0.12533401  0.45122715     0.25500
C359        C  0.25965169  0.14096401  0.45499473    -0.12200
C360        C  0.27074587  0.13380717  0.47561772    -0.26300
C361        C  0.24305155  0.11194131  0.00623221     0.36400
C362        C  0.22289031  0.09557017  0.48942945    -0.27900
F363        F  0.22053141  0.13227447  0.43062595    -0.20000
H364        H  0.27359763  0.15815638  0.44114049     0.15700
F365        F  0.25197804  0.10187955  0.02482235    -0.23700
H366        H  0.19909166  0.07940928  0.01415078     0.17500
C367        C  0.34493855  0.14920741  0.47503652     0.03600
C368        C  0.36114802  0.17907280  0.47615529    -0.12600
C369        C  0.34795093  0.19412863  0.47695790     0.01100
C370        C  0.31833190  0.17930808  0.47802182    -0.11100
C371        C  0.30180399  0.14940409  0.47761590     0.03600
C372        C  0.31528029  0.13443394  0.47602503    -0.10500
H373        H  0.38405526  0.19048297  0.47434347     0.09200
H374        H  0.30820295  0.19105690  0.47832344     0.06700
H375        H  0.30278370  0.11129620  0.47449091     0.06500
C376        C  0.34910181  0.14464483  0.72358455     0.03600
C377        C  0.31956112  0.12882649  0.72556637    -0.12600
C378        C  0.30467316  0.14164648  0.72265938     0.01100
C379        C  0.31985659  0.17122048  0.71968846    -0.11100
C380        C  0.34951944  0.18754760  0.71967039     0.03600
C381        C  0.36411423  0.17417376  0.72141923    -0.10500
H382        H  0.30821890  0.10616195  0.72850173     0.09200
H383        H  0.30877250  0.18151526  0.71691395     0.06700
H384        H  0.38704743  0.18651604  0.71966273     0.06500
C385        C  0.15333035  0.34364683  0.82218735     0.03600
C386        C  0.13794506  0.31375194  0.81803450    -0.12600
C387        C  0.15173650  0.29919705  0.81036982     0.01100
C388        C  0.18142586  0.31536959  0.80644271    -0.11100
C389        C  0.19728215  0.34504192  0.81262523     0.03600
C390        C  0.18308021  0.35916632  0.81979792    -0.10500
H391        H  0.11520652  0.30189624  0.82201740     0.09200
H392        H  0.19261636  0.30495600  0.79930300     0.06700
H393        H  0.19517813  0.38211699  0.82419837     0.06500
C394        C  0.15520272  0.34775847  0.55978534     0.03600
C395        C  0.18468517  0.36318818  0.56250149    -0.12600
C396        C  0.19849751  0.34885744  0.56375875     0.01100
C397        C  0.18257722  0.31893174  0.56290953    -0.11100
C398        C  0.15319653  0.30324858  0.56029337     0.03600
C399        C  0.14008580  0.31779196  0.55680842    -0.10500
H400        H  0.19671821  0.38625316  0.56537948     0.09200
H401        H  0.19300567  0.30790456  0.56537428     0.06700
H402        H  0.11765058  0.30558017  0.55313799     0.06500
N403        N  0.05521218  0.04593322  0.92777138    -0.05700
N404        N  0.07270231  0.05682454  0.94914632    -0.57800
N405        N  0.04399811  0.05819010  0.86360829    -0.05400
N406        N  0.05438039  0.07608917  0.84289649    -0.59900
N407        N  0.03342784  0.06708753  0.88538320    -0.05000
N408        N  0.03627400  0.09107076  0.87996123    -0.57800
N409        N  0.06503643  0.03626312  0.90597785    -0.04600
N410        N  0.08924643  0.04023916  0.91206005    -0.60300
C411        C  0.09379686  0.05296505  0.93907129     0.96500
C412        C  0.04920858  0.09640444  0.85334708     0.96300
N413        N  0.49670868  0.47737991  0.82971367    -0.05900
N414        N  0.48557311  0.47077187  0.80431878    -0.58400
N415        N  0.04450470  0.47945934  0.87585580    -0.04000
N416        N  0.06563851  0.47552852  0.87317767    -0.59600
N417        N  0.02010426  0.45474812  0.87532798    -0.05900
N418        N  0.02411601  0.43356114  0.87243879    -0.58600
N419        N  0.02030909  0.00068804  0.82547455    -0.03600
N420        N  0.02753806  0.01162607  0.80009002    -0.59700
Mn421      Mn  0.04358686  0.01886800  0.86514705     1.18400
C422        C  0.50465116  0.49323454  0.78896305     0.98600
C423        C  0.05259712  0.44676571  0.87123537     0.99200
N424        N  0.47312041  0.03971845  0.92985595    -0.05900
N425        N  0.46795142  0.06011017  0.93129979    -0.62200
N426        N  0.47996601  0.49466929  0.96847166    -0.04700
N427        N  0.47429341  0.48432503  0.99401496    -0.62900
N428        N  0.99694406  0.01960191  0.96292838    -0.05400
N429        N  0.00664579  0.02681316  0.98902716    -0.62500
N430        N  0.44921975  0.01452389  0.92955332    -0.04300
N431        N  0.42739761  0.01722839  0.93075690    -0.63200
Mn432      Mn  0.01558932  0.04423206  0.92483150     1.10700
C433        C  0.43930916  0.04574401  0.93163872     0.99800
C434        C  0.49687442  0.49877263  0.50908584     0.99900
N435        N  0.46417308  0.42805856  0.90651879    -0.05400
N436        N  0.45974660  0.40282754  0.90957078    -0.60800
N437        N  0.43060548  0.45871796  0.89101820    -0.04700
N438        N  0.40583541  0.45454518  0.88691025    -0.57500
N439        N  0.43960509  0.44955360  0.86800346    -0.06100
N440        N  0.42085972  0.43854171  0.84782197    -0.60400
N441        N  0.45446822  0.43647809  0.92955288    -0.05000
N442        N  0.44291304  0.41686743  0.94865769    -0.57600
Mn443      Mn  0.47995733  0.45191618  0.86755560     1.20200
Mn444      Mn  0.45439257  0.47595658  0.93037324     1.10100
Cl445      Cl  0.50026702  0.49824005  0.89919851    -0.85500
C446        C  0.44658336  0.39609062  0.93598961     0.96800
C447        C  0.40005574  0.44210494  0.85984851     0.96600
N448        N  0.06432190  0.04178890  0.67281671    -0.05700
N449        N  0.08352840  0.04983835  0.69181791    -0.57800
N450        N  0.04634443  0.05982320  0.61665095    -0.05400
N451        N  0.05601510  0.08009466  0.59863982    -0.59900
N452        N  0.03896652  0.06746630  0.64189480    -0.05000
N453        N  0.04361108  0.09317864  0.64163255    -0.57800
N454        N  0.07199274  0.03442182  0.64760986    -0.04600
N455        N  0.09656306  0.03729191  0.64884770    -0.60300
C456        C  0.10344093  0.04677279  0.67652407     0.96500
C457        C  0.05400570  0.10068997  0.61443634     0.96300
N458        N  0.49273692  0.47766213  0.57812177    -0.05900
N459        N  0.48097866  0.47209838  0.55322681    -0.58400
N460        N  0.04315118  0.47937841  0.61840464    -0.04000
N461        N  0.06471794  0.47630203  0.61325369    -0.59600
N462        N  0.01907160  0.45440560  0.61749027    -0.05900
N463        N  0.02372133  0.43374173  0.61151275    -0.58600
N464        N  0.01874350  0.00516978  0.57353204    -0.03600
N465        N  0.02391408  0.01707656  0.54895972    -0.59700
Mn466      Mn  0.04625932  0.02043995  0.60997479     1.18400
C467        C  0.49961258  0.49540143  0.53868905     0.98600
C468        C  0.05230734  0.44774557  0.60914231     0.99200
N469        N  0.48220039  0.03412543  0.69044587    -0.05900
N470        N  0.47770864  0.05495950  0.69444122    -0.62200
N471        N  0.48385366  0.48752592  0.71897179    -0.04700
N472        N  0.47870670  0.47611537  0.74386048    -0.62900
N473        N  0.01047535  0.01285663  0.71444944    -0.05400
N474        N  0.02213906  0.01834464  0.73939633    -0.62500
N475        N  0.45804245  0.00920817  0.69000010    -0.04300
N476        N  0.43656224  0.01250977  0.69370004    -0.63200
Mn477      Mn  0.02498903  0.04073150  0.67870859     1.10700
C478        C  0.44915311  0.04114962  0.69641921     0.99800
C479        C  0.50133686  0.49577833  0.75914260     0.99900
N480        N  0.46533916  0.42471646  0.65179571    -0.05400
N481        N  0.46302100  0.40019123  0.65314371    -0.60800
N482        N  0.43053541  0.45610039  0.64438678    -0.05900
N483        N  0.40582339  0.45290287  0.64259719    -0.57500
N484        N  0.43846990  0.44841846  0.61953764    -0.06100
N485        N  0.41929075  0.43976657  0.60030123    -0.60400
N486        N  0.45719736  0.43224507  0.67663824    -0.05000
N487        N  0.44895721  0.41285982  0.69536011    -0.57600
Mn488      Mn  0.47837710  0.45022198  0.61421904     1.20200
Mn489      Mn  0.45653375  0.47126775  0.68215484     1.10100
Cl490      Cl  0.50041271  0.49482641  0.64852813    -0.85500
C491        C  0.45296084  0.39311455  0.68047812     0.96800
C492        C  0.39907609  0.44279373  0.61496042     0.96600
C493        C  0.08301605  0.16193337  0.56636646    -0.27800
C494        C  0.09202477  0.18514824  0.58691918     0.05800
C495        C  0.08734760  0.18020487  0.61643297     0.25500
C496        C  0.07410291  0.15253128  0.62513726    -0.12200
C497        C  0.06561614  0.12934351  0.60464738    -0.26200
C498        C  0.06991911  0.13420000  0.57509371     0.36300
C499        C  0.10637294  0.21453225  0.57774831     0.05900
F500        F  0.09654873  0.20227417  0.63686217    -0.20000
H501        H  0.07130623  0.14937041  0.64802554     0.15700
F502        F  0.06130732  0.11219053  0.55467623    -0.23700
H503        H  0.08609871  0.16531940  0.54351321     0.17500
C504        C  0.13067640  0.22588040  0.55903438     0.25500
C505        C  0.14523517  0.25444964  0.55246544    -0.12200
C506        C  0.13594002  0.27219929  0.56459612    -0.26300
C507        C  0.11127755  0.26052167  0.58298210     0.36400
C508        C  0.09658329  0.23194718  0.58915062    -0.27900
F509        F  0.14112544  0.20977585  0.54826888    -0.20000
H510        H  0.16416285  0.26287821  0.53834668     0.15700
F511        F  0.10223640  0.27701981  0.59651972    -0.23700
H512        H  0.07786939  0.22355396  0.60360282     0.17500
C513        C  0.33727208  0.40998980  0.56620812    -0.27800
C514        C  0.31742530  0.41225727  0.58486012     0.05800
C515        C  0.32545010  0.42695451  0.61201405     0.25500
C516        C  0.35249331  0.43788182  0.62105839    -0.12200
C517        C  0.37197605  0.43419559  0.60325184    -0.26200
C518        C  0.36444683  0.42084560  0.57530049     0.36300
C519        C  0.28736826  0.39589394  0.57809947     0.05900
F520        F  0.30660762  0.42961765  0.63026596    -0.20000
H521        H  0.35779257  0.44834458  0.64250724     0.15700
F522        F  0.38272915  0.41706747  0.55729068    -0.23700
H523        H  0.33122726  0.39849775  0.54525925     0.17500
C524        C  0.27769746  0.40260003  0.55567336     0.25500
C525        C  0.24865978  0.38733030  0.55107910    -0.12200
C526        C  0.22915383  0.36509342  0.56859822    -0.26300
C527        C  0.23909766  0.35850826  0.59094416     0.36400
C528        C  0.26792460  0.37372668  0.59548574    -0.27900
F529        F  0.29616654  0.42425758  0.53883120    -0.20000
H530        H  0.24137683  0.39273151  0.53380688     0.15700
F531        F  0.22088896  0.33801334  0.60907576    -0.23700
H532        H  0.27514716  0.36845917  0.61293221     0.17500
C533        C  0.09989498  0.36511134  0.58432202    -0.27800
C534        C  0.11198734  0.39210043  0.57404922     0.05800
C535        C  0.13820590  0.40448366  0.55840889     0.25500
C536        C  0.15180332  0.38966792  0.55291847    -0.12200
C537        C  0.13976433  0.36258086  0.56347374    -0.26200
C538        C  0.11358146  0.35059304  0.57944165     0.36300
C539        C  0.09732677  0.40727602  0.58115004     0.05900
F540        F  0.15055643  0.43075626  0.54836947    -0.20000
H541        H  0.17182227  0.39947999  0.54055269     0.15700
F542        F  0.10172095  0.32555703  0.59194229    -0.23700
H543        H  0.08013360  0.35560798  0.59716599     0.17500
C544        C  0.06835648  0.39339644  0.57631977     0.25500
C545        C  0.05378590  0.40655217  0.58589580    -0.12200
C546        C  0.06789393  0.43387953  0.60008727    -0.26300
C547        C  0.09697964  0.44798354  0.60457104     0.36400
C548        C  0.11151627  0.43468186  0.59519827    -0.27900
F549        F  0.05417631  0.36711538  0.56224597    -0.20000
H550        H  0.03147939  0.39544935  0.58187703     0.15700
F551        F  0.11118097  0.47421945  0.61872233    -0.23700
H552        H  0.13368727  0.44544367  0.59966037     0.17500
C553        C  0.13046818  0.22304022  0.81863659    -0.27800
C554        C  0.10205909  0.20728624  0.81156740     0.05800
C555        C  0.09031934  0.22144048  0.80245062     0.25500
C556        C  0.10701106  0.25104396  0.80040516    -0.12200
C557        C  0.13530382  0.26727451  0.80882565    -0.26200
C558        C  0.14680557  0.25265181  0.81793501     0.36300
C559        C  0.08444858  0.17684398  0.81752199     0.05900
F560        F  0.06261833  0.20672838  0.79614328    -0.20000
H561        H  0.09744718  0.26128087  0.79285466     0.15700
F562        F  0.17305079  0.26678699  0.82838561    -0.23700
H563        H  0.13956819  0.21248432  0.82656995     0.17500
C564        C  0.09199516  0.15774922  0.80522197     0.25500
C565        C  0.07920810  0.13078442  0.81581077    -0.12200
C566        C  0.05907081  0.12272533  0.83908101    -0.26300
C567        C  0.05027306  0.14123061  0.85007542     0.36400
C568        C  0.06283750  0.16800138  0.83924276    -0.27900
F569        F  0.11264747  0.16574389  0.78390912    -0.20000
H570        H  0.08616730  0.11683898  0.80680211     0.15700
F571        F  0.03045420  0.13406932  0.87215772    -0.23700
H572        H  0.05694923  0.18258213  0.84911901     0.17500
C573        C  0.33022063  0.43121132  0.84457813    -0.27800
C574        C  0.31752364  0.40499287  0.82820900     0.05800
C575        C  0.33324190  0.39256297  0.81983009     0.25500
C576        C  0.36085338  0.40565493  0.82877944    -0.12200
C577        C  0.37288527  0.43094070  0.84673505    -0.26200
C578        C  0.35759269  0.44399773  0.85404379     0.36300
C579        C  0.28705744  0.38936147  0.82267387     0.05900
F580        F  0.32151757  0.36730107  0.80379018    -0.20000
H581        H  0.37224148  0.39524965  0.82293079     0.15700
F582        F  0.36887813  0.46881027  0.87082727    -0.23700
H583        H  0.31839884  0.44104614  0.85121173     0.17500
C584        C  0.26808970  0.36320724  0.83490661     0.25500
C585        C  0.23912979  0.34890292  0.83103114    -0.12200
C586        C  0.22840087  0.36038374  0.81499360    -0.26300
C587        C  0.24740241  0.38664449  0.80273654     0.36400
C588        C  0.27653321  0.40104110  0.80667411    -0.27900
F589        F  0.27749866  0.35207015  0.85161494    -0.20000
H590        H  0.22490214  0.32907050  0.84127469     0.15700
F591        F  0.23787920  0.39815778  0.78672036    -0.23700
H592        H  0.29091725  0.42130641  0.79725720     0.17500
C593        C  0.10983489  0.43105126  0.85247646    -0.27800
C594        C  0.09396065  0.40110646  0.85130799     0.05800
C595        C  0.06458341  0.38634991  0.85750848     0.25500
C596        C  0.05143238  0.40142508  0.86439017    -0.12200
C597        C  0.06725678  0.43141752  0.86528864    -0.26200
C598        C  0.09672276  0.44615299  0.85935830     0.36300
C599        C  0.10846605  0.38569056  0.84416939     0.05900
F600        F  0.04870991  0.35744095  0.85753985    -0.20000
H601        H  0.02868814  0.38950184  0.86901872     0.15700
F602        F  0.11287381  0.47507118  0.85972866    -0.23700
H603        H  0.13256220  0.44281759  0.84769900     0.17500
C604        C  0.09968912  0.36413193  0.82165268     0.25500
C605        C  0.11439368  0.35061394  0.81467120    -0.12200
C606        C  0.13804357  0.35829302  0.82996236    -0.26300
C607        C  0.14651693  0.37959668  0.85274589     0.36400
C608        C  0.13191951  0.39320859  0.85959432    -0.27900
F609        F  0.07750047  0.35677263  0.80583362    -0.20000
H610        H  0.10754656  0.33435909  0.79692368     0.15700
F611        F  0.16837811  0.38672660  0.86894433    -0.23700
H612        H  0.13879185  0.40956202  0.87724771     0.17500
C613        C  0.39937015  0.12236637  0.73440153    -0.27800
C614        C  0.39094100  0.09972651  0.71316315     0.05800
C615        C  0.36876204  0.09201292  0.69557851     0.25500
C616        C  0.35527959  0.10678956  0.69927631    -0.12200
C617        C  0.36377089  0.12949039  0.72042178    -0.26200
C618        C  0.38599611  0.13732699  0.73792863     0.36300
C619        C  0.40571727  0.08461680  0.70909384     0.05900
F620        F  0.36069199  0.07078255  0.67430988    -0.20000
H621        H  0.33843646  0.10080183  0.68532420     0.15700
F622        F  0.39431992  0.15896910  0.75873702    -0.23700
H623        H  0.41623134  0.12834104  0.74832152     0.17500
C624        C  0.43534484  0.09998958  0.70552359     0.25500
C625        C  0.44924660  0.08561764  0.70156990    -0.12200
C626        C  0.43385410  0.05571095  0.70091199    -0.26300
C627        C  0.40411579  0.04026779  0.70440643     0.36400
C628        C  0.39023015  0.05471919  0.70853041    -0.27900
F629        F  0.45079213  0.12886773  0.70509974    -0.20000
H630        H  0.47212191  0.09797137  0.69874096     0.15700
F631        F  0.38842006  0.01132641  0.70396469    -0.23700
H632        H  0.36736217  0.04258222  0.71148074     0.17500
C633        C  0.39832375  0.26715624  0.73411419    -0.27800
C634        C  0.39822223  0.27697519  0.70787256     0.05800
C635        C  0.38149684  0.25734904  0.68576193     0.25500
C636        C  0.36504977  0.22819751  0.68998117    -0.12200
C637        C  0.36554568  0.21835285  0.71604610    -0.26200
C638        C  0.38229452  0.23795455  0.73811703     0.36300
C639        C  0.41503305  0.30773600  0.70373502     0.05900
F640        F  0.38086062  0.26647004  0.66030342    -0.20000
H641        H  0.35227847  0.21320209  0.67273691     0.15700
F642        F  0.38291346  0.22878384  0.76353631    -0.23700
H643        H  0.41107256  0.28215070  0.75136191     0.17500
C644        C  0.40789186  0.32584272  0.71964630     0.25500
C645        C  0.42168876  0.35431787  0.71320515    -0.12200
C646        C  0.44268848  0.36499424  0.69076673    -0.26300
C647        C  0.45122057  0.34732423  0.67629117     0.36400
C648        C  0.43725529  0.31878614  0.68262356    -0.27900
F649        F  0.38638667  0.31551817  0.74012928    -0.20000
H650        H  0.41483483  0.36751821  0.72469294     0.15700
F651        F  0.47252830  0.35738994  0.65557942    -0.23700
H652        H  0.44326919  0.30510197  0.67061240     0.17500
C653        C  0.23116514  0.08117925  0.70231763    -0.27800
C654        C  0.21481823  0.09203798  0.71396022     0.05800
C655        C  0.22770947  0.11813976  0.73071003     0.25500
C656        C  0.25681620  0.13372357  0.73433326    -0.12200
C657        C  0.27352062  0.12378236  0.72096588    -0.26200
C658        C  0.26027913  0.09707551  0.70509682     0.36300
C659        C  0.18544765  0.07793467  0.70529458     0.05900
F660        F  0.21258379  0.12945350  0.74203565    -0.20000
H661        H  0.26643568  0.15399858  0.74698588     0.15700
F662        F  0.27550727  0.08706451  0.69054766    -0.23700
H663        H  0.22153110  0.06091282  0.68961750     0.17500
C664        C  0.17955582  0.07043175  0.67593094     0.25500
C665        C  0.15246577  0.05916902  0.66717264    -0.12200
C666        C  0.13082795  0.05573173  0.68726751    -0.26300
C667        C  0.13635809  0.06250819  0.71677014     0.36400
C668        C  0.16354209  0.07339686  0.72567915    -0.27900
F669        F  0.20032555  0.07547235  0.65540047    -0.20000
H670        H  0.14878346  0.05425853  0.64427391     0.15700
F671        F  0.11573992  0.05896037  0.73687128    -0.23700
H672        H  0.16762095  0.07871846  0.74847745     0.17500
C673        C  0.35032644  0.09013892  0.94483493    -0.27800
C674        C  0.37491599  0.09802180  0.95843184     0.05800
C675        C  0.38464884  0.11958924  0.98097419     0.25500
C676        C  0.37070924  0.13369858  0.98893719    -0.12200
C677        C  0.34669154  0.12655000  0.97478956    -0.26200
C678        C  0.33624745  0.10422953  0.95291600     0.36300
C679        C  0.39084830  0.08432679  0.94894840     0.05900
F680        F  0.41402322  0.13137179  0.50311852    -0.20000
H681        H  0.38486269  0.15486743  0.50756401     0.15700
F682        F  0.31340236  0.09707332  0.93834337    -0.23700
H683        H  0.34252188  0.07363537  0.92730051     0.17500
C684        C  0.37730712  0.05449201  0.94705997     0.25500
C685        C  0.39316169  0.04213620  0.94056404    -0.12200
C686        C  0.42276000  0.05923434  0.93585444    -0.26300
C687        C  0.43612422  0.08904856  0.93663660     0.36400
C688        C  0.42023741  0.10135899  0.94301493    -0.27900
F689        F  0.34898983  0.03734904  0.95284915    -0.20000
H690        H  0.38227130  0.01910417  0.94004540     0.15700
F691        F  0.46455298  0.10640529  0.93177773    -0.23700
H692        H  0.43102010  0.12440440  0.94380097     0.17500
C693        C  0.39614807  0.32802642  0.97365226    -0.27800
C694        C  0.40609167  0.31056532  0.96244763     0.05800
C695        C  0.43071798  0.32234631  0.94403322     0.25500
C696        C  0.44418310  0.35042378  0.93620799    -0.12200
C697        C  0.43391817  0.36762803  0.94706871    -0.26200
C698        C  0.41012500  0.35637647  0.96647849     0.36300
C699        C  0.39020320  0.27998537  0.96911323     0.05900
F700        F  0.44189862  0.30680760  0.93363080    -0.20000
H701        H  0.46265219  0.35870148  0.92140154     0.15700
F702        F  0.39945458  0.37223398  0.97742021    -0.23700
H703        H  0.39256001  0.32340933  0.49053577     0.17500
C704        C  0.37868340  0.27141569  0.99714710     0.25500
C705        C  0.38620148  0.24407660  0.49179704    -0.12200
C706        C  0.35910569  0.22172629  0.98058914    -0.26300
C707        C  0.37075355  0.23012264  0.95275335     0.36400
C708        C  0.38581452  0.25889748  0.94703055    -0.27900
F709        F  0.42310261  0.29162094  0.50573871    -0.20000
H710        H  0.38937195  0.23657072  0.51051321     0.15700
F711        F  0.36655600  0.21030899  0.93083452    -0.23700
H712        H  0.39352464  0.26458422  0.92509375     0.17500
C713        C  0.15452312  0.09613539  0.98951666    -0.27800
C714        C  0.17452361  0.09092936  0.97539350     0.05800
C715        C  0.16695649  0.07133153  0.95131757     0.25500
C716        C  0.14009995  0.05803225  0.94065519    -0.12200
C717        C  0.12031915  0.06415138  0.95369861    -0.26200
C718        C  0.12741766  0.08267936  0.97889900     0.36300
C719        C  0.20424604  0.10801873  0.98331135     0.05900
F720        F  0.18611369  0.06615882  0.93728341    -0.20000
H721        H  0.13518884  0.04368571  0.92142743     0.15700
F722        F  0.10878814  0.08880597  0.99249332    -0.23700
H723        H  0.16025611  0.11136098  0.00810427     0.17500
C724        C  0.22368910  0.13219282  0.96828742     0.25500
C725        C  0.25260031  0.14583323  0.97180556    -0.12200
C726        C  0.26267964  0.13557567  0.99030611    -0.26300
C727        C  0.25210249  0.11115892  0.49311982     0.36400
C728        C  0.21396554  0.09823467  0.00265723    -0.27900
F729        F  0.21474528  0.14163952  0.94900543    -0.20000
H730        H  0.26721866  0.16367619  0.95894096     0.15700
F731        F  0.26214436  0.10417023  0.51370276    -0.23700
H732        H  0.20876068  0.07785253  0.50262431     0.17500
C733        C  0.34443246  0.65013969  0.97860042     0.03600
C734        C  0.36193616  0.68001817  0.97938140    -0.12600
C735        C  0.35038255  0.69672027  0.98497288     0.01100
C736        C  0.32107654  0.68354112  0.98993382    -0.11100
C737        C  0.30309100  0.65362372  0.98865467     0.03600
C738        C  0.31501069  0.63706924  0.98321289    -0.10500
H739        H  0.38456234  0.69034305  0.97502221     0.09200
H740        H  0.31221399  0.69660162  0.99370656     0.06700
H741        H  0.30135864  0.61399788  0.98188127     0.06500
C742        C  0.34910162  0.65409013  0.23395462     0.03600
C743        C  0.31955496  0.63849996  0.23690972    -0.12600
C744        C  0.30473205  0.65157564  0.23465948     0.01100
C745        C  0.32009585  0.68110865  0.23136297    -0.11100
C746        C  0.34977653  0.69712599  0.23022987     0.03600
C747        C  0.36420656  0.68353425  0.23136978    -0.10500
H748        H  0.30817899  0.61585066  0.23990138     0.09200
H749        H  0.30913503  0.69157511  0.22880718     0.06700
H750        H  0.38708931  0.69560217  0.22852469     0.06500
C751        C  0.15194950  0.84372875  0.31588252     0.03600
C752        C  0.13505944  0.81387836  0.31595237    -0.12600
C753        C  0.14744003  0.79817261  0.31676798     0.01100
C754        C  0.17702802  0.81240433  0.31633077    -0.11100
C755        C  0.19423882  0.84219332  0.31591282     0.03600
C756        C  0.18159601  0.85777386  0.31542774    -0.10500
H757        H  0.11220592  0.80305460  0.31748595     0.09200
H758        H  0.18669446  0.80034456  0.31718714     0.06700
H759        H  0.19474833  0.88088190  0.31599811     0.06500
C760        C  0.14553564  0.85298781  0.06223803     0.03600
C761        C  0.17475857  0.86938966  0.06636567    -0.12600
C762        C  0.18890835  0.85623642  0.07108373     0.01100
C763        C  0.17365747  0.82646067  0.07208913    -0.11100
C764        C  0.14445303  0.80959683  0.06770617     0.03600
C765        C  0.13095804  0.82306092  0.06136834    -0.10500
H766        H  0.18627923  0.89247101  0.06767911     0.09200
H767        H  0.18450579  0.81661280  0.07731533     0.06700
H768        H  0.10878272  0.81023961  0.05654678     0.06500
N769        N  0.06236182  0.54561984  0.43646546    -0.05700
N770        N  0.08145139  0.55490124  0.45596689    -0.57800
N771        N  0.04624560  0.56190110  0.37788338    -0.05400
N772        N  0.05344178  0.57980045  0.35785908    -0.59900
N773        N  0.03762860  0.57006706  0.40197074    -0.05000
N774        N  0.03869333  0.59368795  0.39879632    -0.57800
N775        N  0.07039150  0.53709097  0.41221698    -0.04600
N776        N  0.09496389  0.54028552  0.41467227    -0.60300
C777        C  0.10158783  0.55126483  0.44207053     0.96500
C778        C  0.04849766  0.59942816  0.37113455     0.96300
N779        N  0.49567447  0.98066116  0.33048611    -0.05900
N780        N  0.48428029  0.97466125  0.30536675    -0.58400
N781        N  0.04223199  0.97926094  0.35846073    -0.04000
N782        N  0.06333998  0.97535069  0.35552999    -0.59600
N783        N  0.01778287  0.95458233  0.35796643    -0.05900
N784        N  0.02180041  0.93335831  0.35471266    -0.58600
N785        N  0.02064689  0.50759256  0.33572048    -0.03600
N786        N  0.02737962  0.51929759  0.31079942    -0.59700
Mn787      Mn  0.04617421  0.52263976  0.37349956     1.18400
C788        C  0.50317405  0.99742704  0.29038630     0.98600
C789        C  0.05034817  0.94663549  0.35330710     0.99200
N790        N  0.48219721  0.54116704  0.43537545    -0.05900
N791        N  0.47831350  0.56228697  0.44198651    -0.62200
N792        N  0.48011399  0.99171750  0.47050155    -0.04700
N793        N  0.47394860  0.97990331  0.49529707    -0.62900
N794        N  0.00686661  0.51792672  0.47672249    -0.05400
N795        N  0.01773155  0.52348019  0.50213573    -0.62500
N796        N  0.45773185  0.51650914  0.43438310    -0.04300
N797        N  0.43670118  0.52039142  0.44042209    -0.63200
Mn798      Mn  0.02301265  0.54508536  0.44011668     1.10700
C799        C  0.44985039  0.54908090  0.44493359     0.99800
C800        C  0.48557848  0.00481652  0.01262318     0.99900
N801        N  0.46385309  0.92878309  0.40448496    -0.05400
N802        N  0.46090050  0.90408202  0.40621876    -0.60800
N803        N  0.43015298  0.96021166  0.39328596    -0.04700
N804        N  0.40466824  0.95498857  0.39080130    -0.57500
N805        N  0.43873843  0.95182673  0.36930016    -0.06100
N806        N  0.41900834  0.94044129  0.35007805    -0.60400
N807        N  0.45455870  0.93622326  0.42853567    -0.05000
N808        N  0.44489960  0.91649559  0.44722558    -0.57600
Mn809      Mn  0.47919121  0.95391059  0.36700837     1.20200
Mn810      Mn  0.45450807  0.97563141  0.43242192     1.10100
Cl811      Cl  0.50004242  0.99877213  0.40084216    -0.85500
C812        C  0.44918573  0.89666572  0.43298047     0.96800
C813        C  0.39796704  0.94284712  0.36371491     0.96600
N814        N  0.06366313  0.55026983  0.18322657    -0.05700
N815        N  0.08323288  0.55913039  0.20201908    -0.57800
N816        N  0.04469275  0.56713686  0.12684930    -0.05400
N817        N  0.05424173  0.58730319  0.10868763    -0.59900
N818        N  0.03728554  0.57487215  0.15202479    -0.05000
N819        N  0.04171378  0.60050375  0.15150258    -0.57800
N820        N  0.07143702  0.54300319  0.15803125    -0.04600
N821        N  0.09643379  0.54674387  0.15904467    -0.60300
C822        C  0.10346601  0.55666463  0.18660907     0.96500
C823        C  0.05209414  0.60795362  0.12425219     0.96300
N824        N  0.48121878  0.98523519  0.08223319    -0.05900
N825        N  0.46926476  0.97938151  0.05742725    -0.58400
N826        N  0.03435867  0.98534040  0.10202270    -0.04000
N827        N  0.05599446  0.98256251  0.09555922    -0.59600
N828        N  0.01040094  0.96025067  0.10149679    -0.05900
N829        N  0.01517851  0.93978569  0.09444234    -0.58600
N830        N  0.01670695  0.51114586  0.08510430    -0.03600
N831        N  0.02087121  0.52262684  0.06052396    -0.59700
Mn832      Mn  0.04506276  0.52785330  0.12086855     1.18400
C833        C  0.48760871  0.00267552  0.04273669     0.98600
C834        C  0.04372004  0.95406544  0.09096961     0.99200
N835        N  0.48398497  0.54589083  0.18702465    -0.05900
N836        N  0.47951621  0.56671261  0.19179492    -0.62200
N837        N  0.47912388  0.99307692  0.22262916    -0.04700
N838        N  0.47547456  0.98112063  0.24677722    -0.62900
N839        N  0.00974185  0.52076459  0.22525215    -0.05400
N840        N  0.02132263  0.52668800  0.25033823    -0.62500
N841        N  0.45984411  0.52092865  0.18675633    -0.04300
N842        N  0.43840201  0.52424711  0.19142923    -0.63200
Mn843      Mn  0.02378896  0.54829882  0.18916965     1.10700
C844        C  0.45100072  0.55290043  0.19444741     0.99800
C845        C  0.49883715  0.00055432  0.26119424     0.99900
N846        N  0.45748516  0.93104616  0.15417802    -0.05400
N847        N  0.45575020  0.90665827  0.15450205    -0.60800
N848        N  0.42176662  0.96248901  0.15165496    -0.05900
N849        N  0.39677153  0.95910741  0.15165758    -0.57500
N850        N  0.42865998  0.95512305  0.12599620    -0.06100
N851        N  0.40849502  0.94651442  0.10800643    -0.60400
N852        N  0.45057830  0.93840094  0.17984447    -0.05000
N853        N  0.44386315  0.91911123  0.19813885    -0.57600
Mn854      Mn  0.46856719  0.95719758  0.11750418     1.20200
Mn855      Mn  0.44972462  0.97727671  0.18778518     1.10100
Cl856      Cl  0.49192715  0.00145874  0.15227443    -0.85500
C857        C  0.44737441  0.89953305  0.18212273     0.96800
C858        C  0.38876279  0.94919833  0.12426924     0.96600
C859        C  0.08085555  0.66880318  0.07521899    -0.27800
C860        C  0.08568994  0.69148416  0.09521228     0.05800
C861        C  0.07827932  0.68623309  0.12455498     0.25500
C862        C  0.06677116  0.65890151  0.13368720    -0.12200
C863        C  0.06252207  0.63628549  0.11382436    -0.26200
C864        C  0.06939104  0.64144496  0.08434250     0.36300
C865        C  0.09944124  0.72078234  0.08569656     0.05900
F866        F  0.08328632  0.70781757  0.14455964    -0.20000
H867        H  0.06185521  0.65562706  0.15652627     0.15700
F868        F  0.06509289  0.62013840  0.06429260    -0.23700
H869        H  0.08614172  0.67235820  0.05245126     0.17500
C870        C  0.12579894  0.73373258  0.07031159     0.25500
C871        C  0.13971600  0.76216446  0.06347374    -0.12200
C872        C  0.12787291  0.77843987  0.07214008    -0.26300
C873        C  0.10107191  0.76511120  0.08702027     0.36400
C874        C  0.08703768  0.73656785  0.09346069    -0.27900
F875        F  0.13878365  0.71935030  0.06317911    -0.20000
H876        H  0.16013855  0.77163523  0.05184804     0.15700
F877        F  0.08904212  0.77994587  0.09695557    -0.23700
H878        H  0.06669852  0.72694360  0.10529650     0.17500
C879        C  0.32521410  0.91738079  0.07837479    -0.27800
C880        C  0.30664508  0.92143472  0.09736652     0.05800
C881        C  0.31601187  0.93656379  0.12419089     0.25500
C882        C  0.34309657  0.94629466  0.13236798    -0.12200
C883        C  0.36126760  0.94104648  0.11400484    -0.26200
C884        C  0.35230763  0.92698496  0.08658211     0.36300
C885        C  0.27654509  0.90650479  0.09083550     0.05900
F886        F  0.29862923  0.94119540  0.14280911    -0.20000
H887        H  0.34955884  0.95732153  0.15344637     0.15700
F888        F  0.36907145  0.92126115  0.06821561    -0.23700
H889        H  0.31817740  0.90541319  0.05777530     0.17500
C890        C  0.26816041  0.90972949  0.06496986     0.25500
C891        C  0.23948445  0.89362604  0.05869227    -0.12200
C892        C  0.21906802  0.87383856  0.07788258    -0.26300
C893        C  0.22752812  0.87103702  0.10385457     0.36400
C894        C  0.25598505  0.88725639  0.11022364    -0.27900
F895        F  0.28762350  0.92841124  0.04595016    -0.20000
H896        H  0.23323401  0.89617043  0.03867136     0.15700
F897        F  0.20819347  0.85276310  0.12322113    -0.23700
H898        H  0.26209200  0.88430339  0.13011206     0.17500
C899        C  0.08968177  0.87090318  0.07793561    -0.27800
C900        C  0.10219214  0.89656698  0.06461765     0.05800
C901        C  0.12862329  0.90759197  0.04973822     0.25500
C902        C  0.14215049  0.89278733  0.04799661    -0.12200
C903        C  0.12988205  0.86720554  0.06176256    -0.26200
C904        C  0.10346022  0.85652140  0.07696084     0.36300
C905        C  0.08820327  0.91245162  0.06833246     0.05900
F906        F  0.14134343  0.93267996  0.03704706    -0.20000
H907        H  0.16240370  0.90153599  0.03616342     0.15700
F908        F  0.09161703  0.83317210  0.09243402    -0.23700
H909        H  0.06968226  0.86260833  0.09021078     0.17500
C910        C  0.05995090  0.89916816  0.06103577     0.25500
C911        C  0.04566512  0.91301237  0.06816550    -0.12200
C912        C  0.05943381  0.94032102  0.08243598    -0.26300
C913        C  0.08803628  0.95403067  0.08879859     0.36400
C914        C  0.10224171  0.94007654  0.08183141    -0.27900
F915        F  0.04615613  0.87270570  0.04730860    -0.20000
H916        H  0.02376117  0.90229601  0.06268054     0.15700
F917        F  0.10186961  0.98028049  0.10296625    -0.23700
H918        H  0.12390693  0.95039370  0.08797773     0.17500
C919        C  0.11722555  0.72798447  0.34942463    -0.27800
C920        C  0.09450644  0.70939052  0.33198394     0.05800
C921        C  0.08897791  0.71976152  0.30931549     0.25500
C922        C  0.10630109  0.74877903  0.30424146    -0.12200
C923        C  0.12941233  0.76742900  0.32151875    -0.26200
C924        C  0.13458902  0.75677305  0.34432028     0.36300
C925        C  0.07766890  0.67909379  0.33756115     0.05900
F926        F  0.06696289  0.70188913  0.29227484    -0.20000
H927        H  0.10188976  0.75668264  0.28671207     0.15700
F928        F  0.15596644  0.77432843  0.36218583    -0.23700
H929        H  0.12155127  0.72006362  0.36702294     0.17500
C930        C  0.08528628  0.66078341  0.32323766     0.25500
C931        C  0.07423085  0.63398282  0.33326701    -0.12200
C932        C  0.05582201  0.62539204  0.35795878    -0.26300
C933        C  0.04673259  0.64305486  0.37107072     0.36400
C934        C  0.05775131  0.66983801  0.36091202    -0.27900
F935        F  0.10510694  0.66975273  0.30105079    -0.20000
H936        H  0.08146893  0.62072356  0.32275856     0.15700
F937        F  0.02820130  0.63502787  0.39436579    -0.23700
H938        H  0.05195968  0.68400577  0.37221081     0.17500
C939        C  0.32399993  0.92577192  0.35600211    -0.27800
C940        C  0.31366144  0.90305327  0.33483734     0.05800
C941        C  0.33171026  0.89471734  0.32163323     0.25500
C942        C  0.35963107  0.90856831  0.33014966    -0.12200
C943        C  0.36973898  0.93065812  0.35219977    -0.26200
C944        C  0.35175925  0.93950374  0.36465939     0.36300
C945        C  0.28333132  0.88660674  0.32875674     0.05900
F946        F  0.32191229  0.87237868  0.30149644    -0.20000
H947        H  0.37292586  0.90122982  0.32036647     0.15700
F948        F  0.36080795  0.96113867  0.38555936    -0.23700
H949        H  0.31026380  0.93235576  0.36636924     0.17500
C950        C  0.26339758  0.86646174  0.34785512     0.25500
C951        C  0.23452993  0.85171617  0.34312620    -0.12200
C952        C  0.22503956  0.85707591  0.31947635    -0.26300
C953        C  0.24501885  0.87705892  0.30015071     0.36400
C954        C  0.27403606  0.89164431  0.30474303    -0.27900
F955        F  0.27192606  0.86132831  0.37126520    -0.20000
H956        H  0.21945535  0.83651714  0.35835728     0.15700
F957        F  0.23644622  0.88219422  0.27678223    -0.23700
H958        H  0.28924504  0.90715252  0.28983933     0.17500
C959        C  0.10900992  0.93258340  0.33855427    -0.27800
C960        C  0.09358934  0.90266387  0.33546216     0.05800
C961        C  0.06388355  0.88725613  0.33903764     0.25500
C962        C  0.04999931  0.90169598  0.34508771    -0.12200
C963        C  0.06541750  0.93167314  0.34786697    -0.26200
C964        C  0.09519347  0.94703112  0.34472099     0.36300
C965        C  0.10884923  0.88789686  0.32956815     0.05900
F966        F  0.04834438  0.85828345  0.33747805    -0.20000
H967        H  0.02703781  0.88930822  0.34766279     0.15700
F968        F  0.11106629  0.97599219  0.34741923    -0.23700
H969        H  0.13197805  0.94487833  0.33598220     0.17500
C970        C  0.10154749  0.86660644  0.30691857     0.25500
C971        C  0.11609133  0.85275984  0.30209166    -0.12200
C972        C  0.13823612  0.86005229  0.31956063    -0.26300
C973        C  0.14567829  0.88152307  0.34200424     0.36400
C974        C  0.13116604  0.89533618  0.34681526    -0.27900
F975        F  0.08068554  0.85949988  0.28922745    -0.20000
H976        H  0.11002462  0.83621823  0.28469605     0.15700
F977        F  0.16604462  0.88819048  0.36017759    -0.23700
H978        H  0.13693832  0.91148639  0.36456576     0.17500
C979        C  0.40123972  0.63314071  0.24041885    -0.27800
C980        C  0.39247675  0.61080906  0.21880353     0.05800
C981        C  0.36927871  0.60265312  0.20257849     0.25500
C982        C  0.35499814  0.61658123  0.20809167    -0.12200
C983        C  0.36378653  0.63894960  0.22964517    -0.26200
C984        C  0.38708767  0.64728824  0.24573036     0.36300
C985        C  0.40758209  0.59609123  0.21315627     0.05900
F986        F  0.36098067  0.58182291  0.18085502    -0.20000
H987        H  0.33744059  0.61035026  0.19509411     0.15700
F988        F  0.39583722  0.66877219  0.26676579    -0.23700
H989        H  0.41892645  0.63947296  0.25326123     0.17500
C990        C  0.43706921  0.61164881  0.20794006     0.25500
C991        C  0.45102146  0.59738379  0.20193362    -0.12200
C992        C  0.43579378  0.56744858  0.20098695    -0.26300
C993        C  0.40627216  0.55191113  0.20651556     0.36400
C994        C  0.39236151  0.56621873  0.21257024    -0.27900
F995        F  0.45225353  0.64055150  0.20785571    -0.20000
H996        H  0.47375832  0.60981523  0.19774800     0.15700
F997        F  0.39080483  0.52298901  0.20626654    -0.23700
H998        H  0.36964099  0.55396679  0.21693049     0.17500
C999        C  0.40122822  0.77685618  0.23951452    -0.27800
C1000       C  0.39878327  0.78542523  0.21349993     0.05800
C1001       C  0.37980928  0.76493146  0.19330087     0.25500
C1002       C  0.36331836  0.73622128  0.19923135    -0.12200
C1003       C  0.36595679  0.72761140  0.22509271    -0.26200
C1004       C  0.38512588  0.74802501  0.24518509     0.36300
C1005       C  0.41473987  0.81585743  0.20797924     0.05900
F1006       F  0.37686954  0.77282928  0.16814493    -0.20000
H1007       H  0.34876195  0.72057278  0.18343893     0.15700
F1008       F  0.38794460  0.74002489  0.27033477    -0.23700
H1009       H  0.41569368  0.79253883  0.25533946     0.17500
C1010       C  0.40883911  0.83437001  0.22502895     0.25500
C1011       C  0.42087842  0.86219116  0.21731327    -0.12200
C1012       C  0.43882148  0.87186169  0.19239779    -0.26300
C1013       C  0.44615831  0.85382938  0.17638413     0.36400
C1014       C  0.43401575  0.82592719  0.18411241    -0.27900
F1015       F  0.38994335  0.82493244  0.24798157    -0.20000
H1016       H  0.41495773  0.87564055  0.23002466     0.15700
F1017       F  0.46444278  0.86284194  0.15293119    -0.23700
H1018       H  0.43895621  0.81188649  0.17102448     0.17500
C1019       C  0.23098956  0.59246584  0.21336515    -0.27800
C1020       C  0.21517754  0.60405353  0.22446716     0.05800
C1021       C  0.22827364  0.63001208  0.24138386     0.25500
C1022       C  0.25719424  0.64473429  0.24585300    -0.12200
C1023       C  0.27351140  0.63407351  0.23308069    -0.26200
C1024       C  0.25992331  0.60744112  0.21705963     0.36300
C1025       C  0.18606600  0.59051840  0.21541435     0.05900
F1026       F  0.21358469  0.64201561  0.25196383    -0.20000
H1027       H  0.26703315  0.66499411  0.25854037     0.15700
F1028       F  0.27471426  0.59671119  0.20304224    -0.23700
H1029       H  0.22111102  0.57234451  0.20039388     0.17500
C1030       C  0.18067494  0.58416528  0.18590288     0.25500
C1031       C  0.15347074  0.57216335  0.17697472    -0.12200
C1032       C  0.13124931  0.56677840  0.19715650    -0.26300
C1033       C  0.13643012  0.57268345  0.22675841     0.36400
C1034       C  0.16375641  0.58447876  0.23577619    -0.27900
F1035       F  0.20196360  0.59070231  0.16557150    -0.20000
H1036       H  0.15004329  0.56801819  0.15400718     0.15700
F1037       F  0.11521842  0.56709511  0.24688229    -0.23700
H1038       H  0.16756314  0.58900313  0.25866440     0.17500
C1039       C  0.36536802  0.59542011  0.46192669    -0.27800
C1040       C  0.39028881  0.60595682  0.47621910     0.05800
C1041       C  0.40049877  0.63079638  0.49489121     0.25500
C1042       C  0.38594749  0.64464670  0.49898501    -0.12200
C1043       C  0.36103474  0.63405703  0.48460292    -0.26200
C1044       C  0.35082456  0.60917911  0.46603778     0.36300
C1045       C  0.40589790  0.59148507  0.47036381     0.05900
F1046       F  0.41734316  0.63322918  0.99540894    -0.20000
H1047       H  0.38962015  0.65802362  0.00340177     0.15700
F1048       F  0.32762953  0.59893776  0.45061542    -0.23700
H1049       H  0.35753432  0.57686727  0.44671039     0.17500
C1050       C  0.39138828  0.56152042  0.46936038     0.25500
C1051       C  0.40582958  0.54793758  0.46109270    -0.12200
C1052       C  0.43505803  0.56389690  0.45414415    -0.26300
C1053       C  0.44980265  0.59391145  0.45631355     0.36400
C1054       C  0.43524569  0.60746919  0.46403019    -0.27900
F1055       F  0.36324171  0.54533820  0.47651791    -0.20000
H1056       H  0.39405503  0.52482921  0.46017116     0.15700
F1057       F  0.47817085  0.61024442  0.45043735    -0.23700
H1058       H  0.44688686  0.63054135  0.46427574     0.17500
C1059       C  0.41094457  0.83163926  0.47666070    -0.27800
C1060       C  0.41481497  0.81245728  0.45813182     0.05800
C1061       C  0.43195182  0.82179986  0.43276145     0.25500
C1062       C  0.44417449  0.84974382  0.42553699    -0.12200
C1063       C  0.43921285  0.86867436  0.44329219    -0.26200
C1064       C  0.42298429  0.85960733  0.46933164     0.36300
C1065       C  0.39917533  0.78223323  0.46424607     0.05900
F1066       F  0.43638620  0.80372517  0.41473735    -0.20000
H1067       H  0.45682361  0.85626071  0.40547325     0.15700
F1068       F  0.41773247  0.87723539  0.48708150    -0.23700
H1069       H  0.38284679  0.82229651  0.99748790     0.17500
C1070       C  0.40247063  0.77398589  0.49006451     0.25500
C1071       C  0.37206406  0.74642681  0.00726828    -0.12200
C1072       C  0.36711845  0.72461074  0.47630743    -0.26300
C1073       C  0.36389790  0.73286511  0.45043428     0.36400
C1074       C  0.37997865  0.76152040  0.44441660    -0.27900
F1075       F  0.39182476  0.79352531  0.02890242    -0.20000
H1076       H  0.36196309  0.73799182  0.02789398     0.15700
F1077       F  0.34543043  0.71316719  0.43092246    -0.23700
H1078       H  0.37714218  0.76765882  0.42450152     0.17500
C1079       C  0.16530820  0.58974046  0.48838148    -0.27800
C1080       C  0.18455105  0.58596262  0.47036421     0.05800
C1081       C  0.17557248  0.56843300  0.44478958     0.25500
C1082       C  0.14797839  0.55597626  0.43660997    -0.12200
C1083       C  0.12902458  0.56108389  0.45362768    -0.26200
C1084       C  0.13763714  0.57745639  0.48008638     0.36300
C1085       C  0.21473976  0.60306115  0.47622076     0.05900
F1086       F  0.19391295  0.56442900  0.42713475    -0.20000
H1087       H  0.14183193  0.54324329  0.41628089     0.15700
F1088       F  0.11997506  0.58289658  0.49714902    -0.23700
H1089       H  0.17217891  0.60343065  0.50810560     0.17500
C1090       C  0.23368969  0.62489470  0.45823706     0.25500
C1091       C  0.26255690  0.64048137  0.46258596    -0.12200
C1092       C  0.27303095  0.63462337  0.48499928    -0.26300
C1093       C  0.25368185  0.61537924  0.00551562     0.36400
C1094       C  0.22483921  0.59743663  0.49905930    -0.27900
F1095       F  0.22419225  0.63097646  0.43633068    -0.20000
H1096       H  0.27683816  0.65671650  0.44790690     0.15700
F1097       F  0.26434052  0.60601462  0.02288707    -0.23700
H1098       H  0.21060770  0.58123269  0.01454128     0.17500
C1099       C  0.34700995  0.65009720  0.48722927     0.03600
C1100       C  0.36330240  0.67965623  0.48435986    -0.12600
C1101       C  0.35013935  0.69444932  0.48272940     0.01100
C1102       C  0.32061897  0.67989324  0.48461651    -0.11100
C1103       C  0.30399494  0.65042125  0.48772568     0.03600
C1104       C  0.31732341  0.63572157  0.48959307    -0.10500
H1105       H  0.38614910  0.69089126  0.48156966     0.09200
H1106       H  0.31059740  0.69145379  0.48282216     0.06700
H1107       H  0.30457957  0.61284238  0.49134690     0.06500
C1108       C  0.34742523  0.64446070  0.73589940     0.03600
C1109       C  0.31786025  0.62871279  0.73889481    -0.12600
C1110       C  0.30286541  0.64166581  0.73695453     0.01100
C1111       C  0.31808689  0.67124020  0.73400620    -0.11100
C1112       C  0.34776489  0.68743714  0.73292064     0.03600
C1113       C  0.36239484  0.67399598  0.73383040    -0.10500
H1114       H  0.30661015  0.60599652  0.74145967     0.09200
H1115       H  0.30701808  0.68160416  0.73147151     0.06700
H1116       H  0.38526365  0.68617958  0.73081073     0.06500
C1117       C  0.14984794  0.84218264  0.82356387     0.03600
C1118       C  0.13502583  0.81225137  0.81930068    -0.12600
C1119       C  0.14956538  0.79842090  0.81119011     0.01100
C1120       C  0.17913618  0.81530405  0.80588874    -0.11100
C1121       C  0.19418407  0.84494040  0.81169166     0.03600
C1122       C  0.17946574  0.85828066  0.82013562    -0.10500
H1123       H  0.11236657  0.79983272  0.82385617     0.09200
H1124       H  0.19087510  0.80539125  0.79905987     0.06700
H1125       H  0.19124237  0.88125747  0.82445208     0.06500
C1126       C  0.15341491  0.84408581  0.56039565     0.03600
C1127       C  0.18294188  0.86006409  0.56297018    -0.12600
C1128       C  0.19704860  0.84647173  0.56646204     0.01100
C1129       C  0.18148515  0.81668543  0.56730610    -0.11100
C1130       C  0.15203682  0.80038301  0.56493571     0.03600
C1131       C  0.13843263  0.81415541  0.56004179    -0.10500
H1132       H  0.19474966  0.88315714  0.56415251     0.09200
H1133       H  0.19225592  0.80637235  0.57128285     0.06700
H1134       H  0.11586815  0.80154416  0.55698809     0.06500
N1135       N  0.06029854  0.54649161  0.93811656    -0.05700
N1136       N  0.07862142  0.55763080  0.95874694    -0.57800
N1137       N  0.04724025  0.55937010  0.87558333    -0.05400
N1138       N  0.05806232  0.57775473  0.85533803    -0.59900
N1139       N  0.03720388  0.56831837  0.89784265    -0.05000
N1140       N  0.04093359  0.59295846  0.89317026    -0.57800
N1141       N  0.06949652  0.53677083  0.91574231    -0.04600
N1142       N  0.09410099  0.54093900  0.92072686    -0.60300
C1143       C  0.09955756  0.55386337  0.94766967     0.96500
C1144       C  0.05382754  0.59852629  0.86647001     0.96300
N1145       N  0.49329229  0.97446345  0.83264346    -0.05900
N1146       N  0.48329040  0.96729022  0.80662568    -0.58400
N1147       N  0.04151723  0.97875831  0.86737337    -0.04000
N1148       N  0.06257962  0.97500920  0.86792897    -0.59600
N1149       N  0.01717943  0.95399845  0.86627698    -0.05900
N1150       N  0.02118881  0.93293568  0.86619530    -0.58600
N1151       N  0.02143832  0.50186902  0.83700489    -0.03600
N1152       N  0.02741148  0.51297325  0.81182394    -0.59700
Mn1153     Mn  0.04647308  0.51970301  0.87562021     1.18400
C1154       C  0.50307938  0.98947165  0.79129208     0.98600
C1155       C  0.04960757  0.94629645  0.86732347     0.99200
N1156       N  0.47915243  0.54066942  0.92987456    -0.05900
N1157       N  0.47406389  0.56112912  0.93220492    -0.62200
N1158       N  0.47196746  0.99422961  0.97055692    -0.04700
N1159       N  0.46452086  0.98415494  0.99632025    -0.62900
N1160       N  0.00280581  0.51962382  0.97495675    -0.05400
N1161       N  0.01352508  0.52694844  0.00056796    -0.62500
N1162       N  0.45519258  0.51552582  0.93020667    -0.04300
N1163       N  0.43338559  0.51838993  0.93272331    -0.63200
Mn1164     Mn  0.02020251  0.54461843  0.93709357     1.10700
C1165       C  0.44543099  0.54695609  0.93378316     0.99800
C1166       C  0.49607705  0.99923446  0.51132261     0.99900
N1167       N  0.45902382  0.92764546  0.91084677    -0.05400
N1168       N  0.45744730  0.90430526  0.91625065    -0.60800
N1169       N  0.42589210  0.95724700  0.89172137    -0.04700
N1170       N  0.40151679  0.95337582  0.88667344    -0.57500
N1171       N  0.43517098  0.94758447  0.86940969    -0.06100
N1172       N  0.41692707  0.93654414  0.84868198    -0.60400
N1173       N  0.44877372  0.93641628  0.93304755    -0.05000
N1174       N  0.43962282  0.91891058  0.95400673    -0.57600
Mn1175     Mn  0.47539031  0.95000781  0.87112984     1.20200
Mn1176     Mn  0.44825334  0.97518316  0.93163528     1.10100
Cl1177     Cl  0.49478723  0.99681565  0.90193215    -0.85500
C1178       C  0.44539607  0.89910990  0.94320683     0.96800
C1179       C  0.39617326  0.94062071  0.85976924     0.96600
N1180       N  0.06192654  0.54136770  0.68604329    -0.05700
N1181       N  0.08120920  0.55001535  0.70515109    -0.57800
N1182       N  0.04453369  0.55849801  0.62900318    -0.05400
N1183       N  0.05485687  0.57859083  0.61070701    -0.59900
N1184       N  0.03676029  0.56645259  0.65378858    -0.05000
N1185       N  0.04177287  0.59225243  0.65292118    -0.57800
N1186       N  0.06963717  0.53349972  0.66117527    -0.04600
N1187       N  0.09427757  0.53662863  0.66269981    -0.60300
C1188       C  0.10119369  0.54678980  0.69022392     0.96500
C1189       C  0.05284935  0.59945367  0.62581029     0.96300
N1190       N  0.49238450  0.97740220  0.57992619    -0.05900
N1191       N  0.48058342  0.97212022  0.55511303    -0.58400
N1192       N  0.04517296  0.98051172  0.60421695    -0.04000
N1193       N  0.06668775  0.97732514  0.59867707    -0.59600
N1194       N  0.02102916  0.95555085  0.60356636    -0.05900
N1195       N  0.02560299  0.93484835  0.59734144    -0.58600
N1196       N  0.01745400  0.50387623  0.58662971    -0.03600
N1197       N  0.02320155  0.51597896  0.56211638    -0.59700
Mn1198     Mn  0.04432915  0.51919324  0.62335191     1.18400
C1199       C  0.49909176  0.99562547  0.54080194     0.98600
C1200       C  0.05417067  0.94872403  0.59451037     0.99200
N1201       N  0.48202631  0.53617975  0.68606649    -0.05900
N1202       N  0.47753887  0.55701362  0.68877709    -0.62200
N1203       N  0.48404105  0.98436038  0.72077771    -0.04700
N1204       N  0.47841863  0.97257576  0.74550174    -0.62900
N1205       N  0.00792704  0.51308224  0.72706179    -0.05400
N1206       N  0.01992744  0.51910546  0.75185377    -0.62500
N1207       N  0.45787142  0.51123713  0.68599206    -0.04300
N1208       N  0.43640631  0.51456142  0.68865486    -0.63200
Mn1209     Mn  0.02247974  0.54025680  0.69099525     1.10700
C1210       C  0.44899598  0.54320987  0.69030414     0.99800
C1211       C  0.50085078  0.99191902  0.76114555     0.99900
N1212       N  0.46458479  0.92262855  0.65239346    -0.05400
N1213       N  0.46071928  0.89727190  0.65308707    -0.60800
N1214       N  0.43060584  0.95528882  0.64691452    -0.05900
N1215       N  0.40591934  0.95233940  0.64599957    -0.57500
N1216       N  0.43805792  0.94777051  0.62165329    -0.06100
N1217       N  0.41844793  0.93948586  0.60297179    -0.60400
N1218       N  0.45675301  0.93013884  0.67744797    -0.05000
N1219       N  0.44735162  0.91011170  0.69563398    -0.57600
Mn1220     Mn  0.47804799  0.94921336  0.61538721     1.20200
Mn1221     Mn  0.45668143  0.96929919  0.68430017     1.10100
Cl1222     Cl  0.50038669  0.99331225  0.65058777    -0.85500
C1223       C  0.45012869  0.88982059  0.68028037     0.96800
C1224       C  0.39855411  0.94257706  0.61847258     0.96600
C1225       C  0.08631527  0.66063670  0.57700644    -0.27800
C1226       C  0.09245355  0.68371551  0.59698911     0.05800
C1227       C  0.08443957  0.67860876  0.62632834     0.25500
C1228       C  0.07068913  0.65097733  0.63534242    -0.12200
C1229       C  0.06508678  0.62801010  0.61545205    -0.26200
C1230       C  0.07289654  0.63303320  0.58608652     0.36300
C1231       C  0.10697643  0.71297079  0.58719231     0.05900
F1232       F  0.09078153  0.70044512  0.64647377    -0.20000
H1233       H  0.06518689  0.64771535  0.65812913     0.15700
F1234       F  0.06754897  0.61133728  0.56610936    -0.23700
H1235       H  0.09182867  0.66397714  0.55423131     0.17500
C1236       C  0.13158469  0.72413218  0.56886749     0.25500
C1237       C  0.14546107  0.75213176  0.56066215    -0.12200
C1238       C  0.13538902  0.76968398  0.57092223    -0.26300
C1239       C  0.11063269  0.75831138  0.58913328     0.36400
C1240       C  0.09646830  0.73018963  0.59675242    -0.27900
F1241       F  0.14290606  0.70843470  0.55988021    -0.20000
H1242       H  0.16448076  0.76030065  0.54670567     0.15700
F1243       F  0.10086652  0.77472317  0.60098062    -0.23700
H1244       H  0.07740578  0.72198040  0.61066029     0.17500
C1245       C  0.33548431  0.91090620  0.57161563    -0.27800
C1246       C  0.31547220  0.91158084  0.59154810     0.05800
C1247       C  0.32383545  0.92497615  0.61920662     0.25500
C1248       C  0.35128148  0.93607640  0.62724166    -0.12200
C1249       C  0.37091548  0.93391915  0.60796460    -0.26200
C1250       C  0.36303402  0.92195147  0.57969778     0.36300
C1251       C  0.28528710  0.89562226  0.58471882     0.05900
F1252       F  0.30516891  0.92660081  0.63875034    -0.20000
H1253       H  0.35682825  0.94552909  0.64900127     0.15700
F1254       F  0.38147291  0.91989095  0.56022031    -0.23700
H1255       H  0.32937205  0.90056848  0.55022460     0.17500
C1256       C  0.27639532  0.90037595  0.56012507     0.25500
C1257       C  0.24759226  0.88452679  0.55426366    -0.12200
C1258       C  0.22747095  0.86348872  0.57258791    -0.26300
C1259       C  0.23651019  0.85887060  0.59714457     0.36400
C1260       C  0.26509458  0.87476904  0.60305195    -0.27900
F1261       F  0.29544544  0.92057165  0.54212417    -0.20000
H1262       H  0.24099923  0.88842660  0.53529712     0.15700
F1263       F  0.21761164  0.83935591  0.61582051    -0.23700
H1264       H  0.27155107  0.87062082  0.62195459     0.17500
C1265       C  0.09911787  0.86386805  0.58021981    -0.27800
C1266       C  0.11102676  0.88914939  0.56631188     0.05800
C1267       C  0.13636502  0.89910851  0.54949184     0.25500
C1268       C  0.14955494  0.88387118  0.54675507    -0.12200
C1269       C  0.13798312  0.85876896  0.56119662    -0.26200
C1270       C  0.11249583  0.84895717  0.57804918     0.36300
C1271       C  0.09739419  0.90549807  0.57093460     0.05900
F1272       F  0.14829064  0.92350969  0.53572744    -0.20000
H1273       H  0.16900239  0.89187742  0.53355561     0.15700
F1274       F  0.10122379  0.82591852  0.59387863    -0.23700
H1275       H  0.07989100  0.85622912  0.59374476     0.17500
C1276       C  0.06890134  0.89250510  0.56470856     0.25500
C1277       C  0.05510502  0.90682537  0.57230084    -0.12200
C1278       C  0.06951351  0.93440402  0.58601854    -0.26300
C1279       C  0.09833340  0.94779330  0.59144280     0.36400
C1280       C  0.11208857  0.93334323  0.58397438    -0.27900
F1281       F  0.05441765  0.86589981  0.55137188    -0.20000
H1282       H  0.03305163  0.89626811  0.56746048     0.15700
F1283       F  0.11290742  0.97430635  0.60496836    -0.23700
H1284       H  0.13398340  0.94351653  0.58924490     0.17500
C1285       C  0.13226174  0.72498504  0.82574222    -0.27800
C1286       C  0.10377072  0.70739700  0.81906773     0.05800
C1287       C  0.09074064  0.71932532  0.80773632     0.25500
C1288       C  0.10610371  0.74864197  0.80367182    -0.12200
C1289       C  0.13444249  0.76669666  0.81167738    -0.26200
C1290       C  0.14734959  0.75426317  0.82263908     0.36300
C1291       C  0.08755811  0.67756316  0.82737833     0.05900
F1292       F  0.06310104  0.70274566  0.80112590    -0.20000
H1293       H  0.09556008  0.75730839  0.79491493     0.15700
F1294       F  0.17381733  0.77043626  0.83265582    -0.23700
H1295       H  0.14242563  0.71623416  0.83515058     0.17500
C1296       C  0.09625317  0.65893687  0.81690884     0.25500
C1297       C  0.08438297  0.63277764  0.82900880    -0.12200
C1298       C  0.06402737  0.62496678  0.85208869    -0.26300
C1299       C  0.05459849  0.64320529  0.86181785     0.36400
C1300       C  0.06615999  0.66915639  0.84935501    -0.27900
F1301       F  0.11691104  0.66652086  0.79564532    -0.20000
H1302       H  0.09197390  0.61911985  0.82102800     0.15700
F1303       F  0.03474559  0.63636519  0.88381174    -0.23700
H1304       H  0.05948476  0.68344705  0.85795405     0.17500
C1305       C  0.32699902  0.93092141  0.84525697    -0.27800
C1306       C  0.31433656  0.90553820  0.82745018     0.05800
C1307       C  0.33050579  0.89395121  0.81700394     0.25500
C1308       C  0.35807194  0.90652839  0.82606391    -0.12200
C1309       C  0.36959792  0.93044887  0.84593403    -0.26200
C1310       C  0.35409004  0.94301362  0.85481848     0.36300
C1311       C  0.28361332  0.89016971  0.82256801     0.05900
F1312       F  0.31905936  0.86943078  0.79976552    -0.20000
H1313       H  0.36967293  0.89654428  0.81896131     0.15700
F1314       F  0.36469926  0.96651016  0.87355252    -0.23700
H1315       H  0.31535234  0.94076692  0.85285473     0.17500
C1316       C  0.26442185  0.88641241  0.84609741     0.25500
C1317       C  0.23560498  0.87235523  0.84192685    -0.12200
C1318       C  0.22509299  0.86114421  0.81445577    -0.26300
C1319       C  0.24392364  0.86424267  0.79089371     0.36400
C1320       C  0.27307461  0.87893131  0.79491764    -0.27900
F1321       F  0.27337388  0.89548128  0.87340007    -0.20000
H1322       H  0.22123350  0.86951518  0.86043148     0.15700
F1323       F  0.23415510  0.85338666  0.76410675    -0.23700
H1324       H  0.28740512  0.88165835  0.77645253     0.17500
C1325       C  0.10777344  0.93098741  0.85719595    -0.27800
C1326       C  0.09189078  0.90101004  0.85480228     0.05800
C1327       C  0.06225272  0.88618819  0.85883954     0.25500
C1328       C  0.04880539  0.90112332  0.86380104    -0.12200
C1329       C  0.06455213  0.93110996  0.86492694    -0.26200
C1330       C  0.09433808  0.94597998  0.86217188     0.36300
C1331       C  0.10627001  0.88540221  0.84732067     0.05900
F1332       F  0.04629115  0.85723534  0.85799850    -0.20000
H1333       H  0.02584475  0.88906373  0.86627782     0.15700
F1334       F  0.11050721  0.97493468  0.86341146    -0.23700
H1335       H  0.13070899  0.94286803  0.85430816     0.17500
C1336       C  0.09772508  0.86465250  0.82397971     0.25500
C1337       C  0.11160224  0.85030579  0.81683339    -0.12200
C1338       C  0.13452298  0.85663788  0.83245574    -0.26300
C1339       C  0.14311861  0.87741948  0.85581374     0.36400
C1340       C  0.12911428  0.89165951  0.86306983    -0.27900
F1341       F  0.07664684  0.85901693  0.80738225    -0.20000
H1342       H  0.10490984  0.83470187  0.79849795     0.15700
F1343       F  0.16471600  0.88360597  0.87193432    -0.23700
H1344       H  0.13599178  0.90750516  0.88118552     0.17500
C1345       C  0.39956724  0.62267690  0.73856668    -0.27800
C1346       C  0.39059767  0.60120096  0.71596656     0.05800
C1347       C  0.36721026  0.59386064  0.70050452     0.25500
C1348       C  0.35304185  0.60775144  0.70763573    -0.12200
C1349       C  0.36207754  0.62931249  0.73008054    -0.26200
C1350       C  0.38553480  0.63684958  0.74547088     0.36300
C1351       C  0.40557496  0.58643456  0.70860101     0.05900
F1352       F  0.35858919  0.57388187  0.67794503    -0.20000
H1353       H  0.33535776  0.60214444  0.69515970     0.15700
F1354       F  0.39455830  0.65755734  0.76733181    -0.23700
H1355       H  0.41732331  0.62833282  0.75094339     0.17500
C1356       C  0.43517247  0.60200415  0.70428213     0.25500
C1357       C  0.44907743  0.58773287  0.69772771    -0.12200
C1358       C  0.43371185  0.55777407  0.69528072    -0.26300
C1359       C  0.40399968  0.54220568  0.69882406     0.36400
C1360       C  0.39015111  0.55650321  0.70567319    -0.27900
F1361       F  0.45059841  0.63098312  0.70601153    -0.20000
H1362       H  0.47194516  0.60019664  0.69480068     0.15700
F1363       F  0.38828071  0.51323599  0.69609693    -0.23700
H1364       H  0.36732128  0.54414738  0.70906747     0.17500
C1365       C  0.39761493  0.76755687  0.74076975    -0.27800
C1366       C  0.39548391  0.77515077  0.71398833     0.05800
C1367       C  0.37723664  0.75388315  0.69381438     0.25500
C1368       C  0.36120685  0.72538435  0.70048123    -0.12200
C1369       C  0.36358798  0.71773623  0.72707256    -0.26200
C1370       C  0.38198837  0.73891741  0.74719639     0.36300
C1371       C  0.41173903  0.80528884  0.70723573     0.05900
F1372       F  0.37467956  0.76078357  0.66786638    -0.20000
H1373       H  0.34722752  0.70912988  0.68468266     0.15700
F1374       F  0.38460952  0.73185416  0.77301777    -0.23700
H1375       H  0.41162094  0.78382794  0.75652475     0.17500
C1376       C  0.40624919  0.82464283  0.72306217     0.25500
C1377       C  0.41976830  0.85252307  0.71482085    -0.12200
C1378       C  0.43883893  0.86143277  0.69060423    -0.26300
C1379       C  0.44521357  0.84231850  0.67553540     0.36400
C1380       C  0.43161526  0.81439195  0.68378797    -0.27900
F1381       F  0.38670900  0.81613109  0.74550729    -0.20000
H1382       H  0.41444135  0.86677129  0.72673833     0.15700
F1383       F  0.46424697  0.85043120  0.65266669    -0.23700
H1384       H  0.43619149  0.79968157  0.67161058     0.17500
C1385       C  0.22900384  0.58208393  0.71612600    -0.27800
C1386       C  0.21305374  0.59349534  0.72740026     0.05800
C1387       C  0.22623475  0.61964674  0.74400451     0.25500
C1388       C  0.25522160  0.63457216  0.74818819    -0.12200
C1389       C  0.27162056  0.62404181  0.73532238    -0.26200
C1390       C  0.25805007  0.59737521  0.71935006     0.36300
C1391       C  0.18373078  0.57969643  0.71872396     0.05900
F1392       F  0.21154279  0.63164376  0.75458666    -0.20000
H1393       H  0.26502506  0.65487964  0.76078511     0.15700
F1394       F  0.27291079  0.58687522  0.70497468    -0.23700
H1395       H  0.21913293  0.56183846  0.70337594     0.17500
C1396       C  0.17786682  0.57237838  0.68936195     0.25500
C1397       C  0.15067437  0.56072777  0.68067916    -0.12200
C1398       C  0.12885420  0.55658850  0.70088511    -0.26300
C1399       C  0.13440351  0.56333079  0.73037381     0.36400
C1400       C  0.16175432  0.57476989  0.73918954    -0.27900
F1401       F  0.19871166  0.57774270  0.66881785    -0.20000
H1402       H  0.14699198  0.55590296  0.65777686     0.15700
F1403       F  0.11357169  0.55896524  0.75054970    -0.23700
H1404       H  0.16586156  0.57999604  0.76198880     0.17500
C1405       C  0.35966620  0.59460815  0.94529848    -0.27800
C1406       C  0.38387507  0.60247389  0.95959670     0.05800
C1407       C  0.39435359  0.62541280  0.98071353     0.25500
C1408       C  0.38110830  0.64039814  0.98701274    -0.12200
C1409       C  0.35717783  0.63290330  0.97245059    -0.26200
C1410       C  0.34643754  0.60972672  0.95153024     0.36300
C1411       C  0.39900726  0.58773198  0.95167412     0.05900
F1412       F  0.42438851  0.64159659  0.50931587    -0.20000
H1413       H  0.39423265  0.66381106  0.51339111     0.15700
F1414       F  0.32402816  0.60254854  0.93618702    -0.23700
H1415       H  0.35151386  0.57726122  0.92861166     0.17500
C1416       C  0.38481894  0.55786301  0.95135414     0.25500
C1417       C  0.39991413  0.54463738  0.94490767    -0.12200
C1418       C  0.42935959  0.56094987  0.93876637    -0.26300
C1419       C  0.44332383  0.59077098  0.93851844     0.36400
C1420       C  0.42823040  0.60389310  0.94481047    -0.27900
F1421       F  0.35663277  0.54161116  0.95831077    -0.20000
H1422       H  0.38861437  0.52163769  0.94533304     0.15700
F1423       F  0.47162100  0.60740423  0.93240928    -0.23700
H1424       H  0.43948679  0.62690807  0.94444480     0.17500
C1425       C  0.40254858  0.83280459  0.98453161    -0.27800
C1426       C  0.41575325  0.81814950  0.97419624     0.05800
C1427       C  0.44106642  0.83226440  0.95708693     0.25500
C1428       C  0.45147246  0.85945510  0.94853166    -0.12200
C1429       C  0.43716266  0.87324470  0.95719502    -0.26200
C1430       C  0.41326523  0.86027406  0.97632307     0.36300
C1431       C  0.40119653  0.78725765  0.97815579     0.05900
F1432       F  0.45512363  0.81932104  0.94766646    -0.20000
H1433       H  0.47025083  0.86934531  0.93415015     0.15700
F1434       F  0.39890204  0.87300898  0.98512396    -0.23700
H1435       H  0.39758874  0.82455814  0.49627029     0.17500
C1436       C  0.38845414  0.77599194  0.00498389     0.25500
C1437       C  0.38666493  0.74521710  0.49591198    -0.12200
C1438       C  0.36868279  0.72784163  0.98301838    -0.26300
C1439       C  0.38210548  0.73904509  0.95648063     0.36400
C1440       C  0.39797039  0.76845585  0.95405244    -0.27900
F1441       F  0.42111299  0.79372595  0.50939195    -0.20000
H1442       H  0.38934230  0.73901160  0.51585984     0.15700
F1443       F  0.37881099  0.72145347  0.93261865    -0.23700
H1444       H  0.40691366  0.77647013  0.93301515     0.17500
C1445       C  0.16436019  0.60162560  0.99203027    -0.27800
C1446       C  0.18219227  0.59255085  0.98023021     0.05800
C1447       C  0.17169630  0.56887497  0.96012651     0.25500
C1448       C  0.14425912  0.55556006  0.95067102    -0.12200
C1449       C  0.12671474  0.56541757  0.96133383    -0.26200
C1450       C  0.13666944  0.58798337  0.98296758     0.36300
C1451       C  0.21266971  0.60989825  0.98575219     0.05900
F1452       F  0.18862510  0.55979676  0.94832145    -0.20000
H1453       H  0.13706545  0.53809519  0.93420301     0.15700
F1454       F  0.12041706  0.59808069  0.99403821    -0.23700
H1455       H  0.17228693  0.61998458  0.00748015     0.17500
C1456       C  0.23064655  0.63493467  0.97134972     0.25500
C1457       C  0.25994559  0.64961075  0.97332353    -0.12200
C1458       C  0.27186066  0.63968779  0.98985518    -0.26300
C1459       C  0.25389918  0.61305654  0.50342436     0.36400
C1460       C  0.22428635  0.60043992  0.00318661    -0.27900
F1461       F  0.21988253  0.64432557  0.95413957    -0.20000
H1462       H  0.27338829  0.66807694  0.96085623     0.15700
F1463       F  0.26324298  0.60725703  0.52566222    -0.23700
H1464       H  0.21027512  0.58069279  0.51313091     0.17500
C1465       C  0.83758695  0.14636798  0.97453401     0.03600
C1466       C  0.85522936  0.17625515  0.97690659    -0.12600
C1467       C  0.84375008  0.19293712  0.98376115     0.01100
C1468       C  0.81452925  0.17948379  0.98987756    -0.11100
C1469       C  0.79633159  0.14964018  0.98667341     0.03600
C1470       C  0.80813005  0.13315831  0.97888262    -0.10500
H1471       H  0.87777924  0.18650802  0.97202178     0.09200
H1472       H  0.80583782  0.19248482  0.99606694     0.06700
H1473       H  0.79451994  0.11016639  0.97559849     0.06500
C1474       C  0.84019848  0.14976055  0.23051668     0.03600
C1475       C  0.81060740  0.13426867  0.23127116    -0.12600
C1476       C  0.79627635  0.14738196  0.22690217     0.01100
C1477       C  0.81202638  0.17700168  0.22395034    -0.11100
C1478       C  0.84158750  0.19304524  0.22520001     0.03600
C1479       C  0.85565230  0.17934579  0.22818143    -0.10500
H1480       H  0.79882807  0.11163446  0.23445024     0.09200
H1481       H  0.80150517  0.18758119  0.22005103     0.06700
H1482       H  0.87858159  0.19150718  0.22725130     0.06500
C1483       C  0.65426938  0.34604568  0.31786141     0.03600
C1484       C  0.63835341  0.31607199  0.31592614    -0.12600
C1485       C  0.65157405  0.30126560  0.31763770     0.01100
C1486       C  0.68092162  0.31650146  0.32048754    -0.11100
C1487       C  0.69704763  0.34634354  0.32129323     0.03600
C1488       C  0.68374723  0.36102840  0.31975680    -0.10500
H1489       H  0.61550797  0.30434559  0.31529545     0.09200
H1490       H  0.69108378  0.30517293  0.32284968     0.06700
H1491       H  0.69622179  0.38417809  0.32132916     0.06500
C1492       C  0.65574484  0.35427782  0.06366916     0.03600
C1493       C  0.68535025  0.36967848  0.06547408    -0.12600
C1494       C  0.69896526  0.35542632  0.06829829     0.01100
C1495       C  0.68284032  0.32563657  0.06929431    -0.11100
C1496       C  0.65335507  0.30996013  0.06752926     0.03600
C1497       C  0.64024829  0.32431737  0.06311151    -0.10500
H1498       H  0.69759798  0.39278434  0.06671898     0.09200
H1499       H  0.69322643  0.31484399  0.07295024     0.06700
H1500       H  0.61761555  0.31212917  0.06051232     0.06500
N1501       N  0.56073372  0.04496759  0.43280095    -0.05700
N1502       N  0.57872138  0.05351352  0.45335646    -0.57800
N1503       N  0.54551874  0.06099012  0.37275873    -0.05400
N1504       N  0.55387895  0.07955751  0.35307498    -0.59900
N1505       N  0.53643497  0.06891134  0.39665979    -0.05000
N1506       N  0.53835148  0.09299854  0.39371490    -0.57800
N1507       N  0.56971266  0.03691764  0.40891283    -0.04600
N1508       N  0.59392713  0.03968735  0.41277332    -0.60300
C1509       C  0.59930723  0.04997671  0.44061969     0.96500
C1510       C  0.54913091  0.09935285  0.36638834     0.96300
N1511       N  0.99601937  0.48315033  0.33494483    -0.05900
N1512       N  0.98540635  0.47752804  0.30942340    -0.58400
N1513       N  0.54492063  0.48182956  0.36252204    -0.04000
N1514       N  0.56611025  0.47804826  0.35795249    -0.59600
N1515       N  0.52054240  0.45712574  0.36137814    -0.05900
N1516       N  0.52464508  0.43603147  0.35601035    -0.58600
N1517       N  0.52000662  0.00547136  0.33093257    -0.03600
N1518       N  0.52567909  0.01698837  0.30596983    -0.59700
Mn1519     Mn  0.54569323  0.02181204  0.36934471     1.18400
C1520       C  0.00516864  0.50027116  0.29476922     0.98600
C1521       C  0.55317734  0.44935739  0.35403024     0.99200
N1522       N  0.98137978  0.04096035  0.42845624    -0.05900
N1523       N  0.97725493  0.06208245  0.43236852    -0.62200
N1524       N  0.98247592  0.49319318  0.47587904    -0.04700
N1525       N  0.97613637  0.48132805  0.50064967    -0.62900
N1526       N  0.50437514  0.01658729  0.47136798    -0.05400
N1527       N  0.51528929  0.02228410  0.49676207    -0.62500
N1528       N  0.95702340  0.01621771  0.42839086    -0.04300
N1529       N  0.93581682  0.01997455  0.43217059    -0.63200
Mn1530     Mn  0.52098258  0.04361192  0.43475924     1.10700
C1531       C  0.94872418  0.04868852  0.43453076     0.99800
C1532       C  0.99443364  0.50471756  0.01608291     0.99900
N1533       N  0.96401441  0.43026445  0.40867910    -0.05400
N1534       N  0.95946965  0.40474039  0.40968510    -0.60800
N1535       N  0.93212216  0.46386257  0.39981858    -0.04700
N1536       N  0.90714330  0.45997101  0.39814535    -0.57500
N1537       N  0.93996126  0.45554501  0.37526838    -0.06100
N1538       N  0.92016482  0.44558099  0.35637962    -0.60400
N1539       N  0.95546669  0.43796264  0.43315039    -0.05000
N1540       N  0.94474367  0.41762624  0.45130045    -0.57600
Mn1541     Mn  0.97947025  0.45591919  0.37128688     1.20200
Mn1542     Mn  0.95648419  0.47798637  0.43831642     1.10100
Cl1543     Cl  0.00128825  0.50033281  0.40586782    -0.85500
C1544       C  0.94756269  0.39712035  0.43638337     0.96800
C1545       C  0.89993836  0.44876056  0.37095141     0.96600
N1546       N  0.55492468  0.04699881  0.17862552    -0.05700
N1547       N  0.57490623  0.05496482  0.19660496    -0.57800
N1548       N  0.53455524  0.06475795  0.12465694    -0.05400
N1549       N  0.54526470  0.08553581  0.10712618    -0.59900
N1550       N  0.52803153  0.07259393  0.15026549    -0.05000
N1551       N  0.53444954  0.09906240  0.15071687    -0.57800
N1552       N  0.56160556  0.03948002  0.15296078    -0.04600
N1553       N  0.58626086  0.04221567  0.15279675    -0.60300
C1554       C  0.59422939  0.05173108  0.18018288     0.96500
C1555       C  0.54487832  0.10673516  0.12353556     0.96300
N1556       N  0.99298724  0.48580317  0.08518320    -0.05900
N1557       N  0.98040489  0.47944978  0.06071879    -0.58400
N1558       N  0.54554994  0.48881183  0.11063740    -0.04000
N1559       N  0.56733946  0.48599490  0.10593026    -0.59600
N1560       N  0.52164178  0.46365356  0.11066150    -0.05900
N1561       N  0.52662596  0.44317068  0.10568832    -0.58600
N1562       N  0.50529342  0.01027038  0.08240440    -0.03600
N1563       N  0.51029110  0.02207487  0.05788771    -0.59700
Mn1564     Mn  0.53420050  0.02541651  0.11702867     1.18400
C1565       C  0.99801677  0.50265048  0.04575724     0.98600
C1566       C  0.55520871  0.45741027  0.10297766     0.99200
N1567       N  0.97484920  0.04114771  0.18564669    -0.05900
N1568       N  0.97026870  0.06177695  0.19236297    -0.62200
N1569       N  0.98573500  0.49565956  0.22481995    -0.04700
N1570       N  0.98039501  0.48392306  0.24945640    -0.62900
N1571       N  0.50306928  0.01820194  0.22238331    -0.05400
N1572       N  0.51630151  0.02392592  0.24634476    -0.62500
N1573       N  0.95078771  0.01610026  0.18573473    -0.04300
N1574       N  0.92933718  0.01916824  0.19252484    -0.63200
Mn1575     Mn  0.51550212  0.04580435  0.18688618     1.10700
C1576       C  0.94179271  0.04777023  0.19655086     0.99800
C1577       C  0.00274333  0.50343224  0.26499728     0.99900
N1578       N  0.96717281  0.43294643  0.15845285    -0.05400
N1579       N  0.96347627  0.40769997  0.15940114    -0.60800
N1580       N  0.93155600  0.46389945  0.15144540    -0.05900
N1581       N  0.90658114  0.46021014  0.14989655    -0.57500
N1582       N  0.93935256  0.45599686  0.12665268    -0.06100
N1583       N  0.91983006  0.44674999  0.10765785    -0.60400
N1584       N  0.95883095  0.44039762  0.18319102    -0.05000
N1585       N  0.94918370  0.42033886  0.20145217    -0.57600
Mn1586     Mn  0.97981069  0.45868952  0.12106291     1.20200
Mn1587     Mn  0.95805064  0.47937752  0.18878778     1.10100
Cl1588     Cl  0.00167786  0.50359239  0.15496003    -0.85500
C1589       C  0.95245353  0.40016902  0.18645207     0.96800
C1590       C  0.89951901  0.44957958  0.12242182     0.96600
C1591       C  0.58023133  0.16971146  0.07691012    -0.27800
C1592       C  0.59033961  0.19265751  0.09787063     0.05800
C1593       C  0.58461677  0.18712976  0.12724260     0.25500
C1594       C  0.56895997  0.15906761  0.13540170    -0.12200
C1595       C  0.55906070  0.13607621  0.11447398    -0.26200
C1596       C  0.56474808  0.14161725  0.08506032     0.36300
C1597       C  0.60610533  0.22227567  0.08907149     0.05900
F1598       F  0.59489115  0.20890008  0.14803826    -0.20000
H1599       H  0.56527935  0.15536380  0.15819110     0.15700
F1600       F  0.55519450  0.11993914  0.06418009    -0.23700
H1601       H  0.58413917  0.17358827  0.05415259     0.17500
C1602       C  0.63030978  0.23274445  0.07028115     0.25500
C1603       C  0.64509981  0.26098839  0.06257730    -0.12200
C1604       C  0.63615365  0.27930805  0.07365021    -0.26300
C1605       C  0.61186259  0.26863018  0.09252102     0.36400
C1606       C  0.59696164  0.24037416  0.09986780    -0.27900
F1607       F  0.64020972  0.21599142  0.06022964    -0.20000
H1608       H  0.66379211  0.26865838  0.04819244     0.15700
F1609       F  0.60320157  0.28576246  0.10509893    -0.23700
H1610       H  0.57833486  0.23265186  0.11437960     0.17500
C1611       C  0.83681666  0.41475124  0.07451321    -0.27800
C1612       C  0.81734332  0.41817082  0.09259463     0.05800
C1613       C  0.82584693  0.43398605  0.11922526     0.25500
C1614       C  0.85297532  0.44501414  0.12822924    -0.12200
C1615       C  0.87210594  0.44038564  0.11091407    -0.26200
C1616       C  0.86403316  0.42571336  0.08355468     0.36300
C1617       C  0.78729932  0.40240348  0.08550556     0.05900
F1618       F  0.80754018  0.43802498  0.13689361    -0.20000
H1619       H  0.85869909  0.45650637  0.14920406     0.15700
F1620       F  0.88186343  0.42082841  0.06606833    -0.23700
H1621       H  0.83047632  0.40240652  0.05400223     0.17500
C1622       C  0.77868412  0.40702106  0.06063216     0.25500
C1623       C  0.74982468  0.39192494  0.05509062    -0.12200
C1624       C  0.72944747  0.37172175  0.07398955    -0.26300
C1625       C  0.73828473  0.36709781  0.09869192     0.36400
C1626       C  0.76689745  0.38232161  0.10432179    -0.27900
F1627       F  0.79805349  0.42642457  0.04213069    -0.20000
H1628       H  0.74337357  0.39575640  0.03597411     0.15700
F1629       F  0.71915627  0.34830524  0.11781208    -0.23700
H1630       H  0.77321595  0.37842229  0.12349500     0.17500
C1631       C  0.60227606  0.37447168  0.08683568    -0.27800
C1632       C  0.61376220  0.39985431  0.07331318     0.05800
C1633       C  0.63879534  0.41007051  0.05589036     0.25500
C1634       C  0.65199684  0.39480514  0.05204142    -0.12200
C1635       C  0.64067149  0.36942279  0.06591355    -0.26200
C1636       C  0.61561774  0.35954731  0.08354389     0.36300
C1637       C  0.59967809  0.41570063  0.07867404     0.05900
F1638       F  0.65030431  0.43462822  0.04251149    -0.20000
H1639       H  0.67115442  0.40291348  0.03834770     0.15700
F1640       F  0.60467266  0.33632598  0.09899777    -0.23700
H1641       H  0.58331751  0.36665896  0.10082911     0.17500
C1642       C  0.57096612  0.40212415  0.07302972     0.25500
C1643       C  0.55672002  0.41586981  0.08114525    -0.12200
C1644       C  0.57085500  0.44342211  0.09487525    -0.26300
C1645       C  0.59974840  0.45724708  0.10018229     0.36400
C1646       C  0.61401992  0.44340460  0.09206978    -0.27900
F1647       F  0.55669306  0.37548544  0.05973701    -0.20000
H1648       H  0.53456660  0.40494155  0.07653859     0.15700
F1649       F  0.61389087  0.48358925  0.11413119    -0.23700
H1650       H  0.63602513  0.45391168  0.09708471     0.17500
C1651       C  0.61631033  0.23105846  0.35130103    -0.27800
C1652       C  0.59978371  0.21158767  0.32906254     0.05800
C1653       C  0.60079114  0.22168405  0.30243975     0.25500
C1654       C  0.61780150  0.25102528  0.29855512    -0.12200
C1655       C  0.63427181  0.27032449  0.32095112    -0.26200
C1656       C  0.63346118  0.26011922  0.34731646     0.36300
C1657       C  0.58195529  0.18099533  0.33458420     0.05900
F1658       F  0.58490879  0.20336057  0.28060253    -0.20000
H1659       H  0.61817496  0.25872697  0.27814397     0.15700
F1660       F  0.64873862  0.27840906  0.36949374    -0.23700
H1661       H  0.61597459  0.22365363  0.37188916     0.17500
C1662       C  0.58590281  0.16084972  0.31798645     0.25500
C1663       C  0.57371828  0.13356328  0.32759289    -0.12200
C1664       C  0.55756360  0.12610202  0.35384417    -0.26300
C1665       C  0.55171136  0.14554526  0.36906613     0.36400
C1666       C  0.56386726  0.17271203  0.35946154    -0.27900
F1667       F  0.60333316  0.16822415  0.29385324    -0.20000
H1668       H  0.57826065  0.11884799  0.31528133     0.15700
F1669       F  0.53540739  0.13893656  0.39397607    -0.23700
H1670       H  0.56033341  0.18791376  0.37232182     0.17500
C1671       C  0.82511954  0.43036729  0.36855565    -0.27800
C1672       C  0.81539258  0.41056180  0.34460441     0.05800
C1673       C  0.83444774  0.40551678  0.32764011     0.25500
C1674       C  0.86244767  0.41907096  0.33550062    -0.12200
C1675       C  0.87175898  0.43773306  0.36038962    -0.26200
C1676       C  0.85299351  0.44384092  0.37647646     0.36300
C1677       C  0.78504343  0.39416978  0.33849683     0.05900
F1678       F  0.82559803  0.38630157  0.30444863    -0.20000
H1679       H  0.87645982  0.41402425  0.32280776     0.15700
F1680       F  0.86126223  0.46228077  0.40030404    -0.23700
H1681       H  0.81088050  0.43493908  0.38152828     0.17500
C1682       C  0.76430486  0.37923715  0.36028043     0.25500
C1683       C  0.73567546  0.36331111  0.35432750    -0.12200
C1684       C  0.72733460  0.36237830  0.32678856    -0.26300
C1685       C  0.74788282  0.37746454  0.30508938     0.36400
C1686       C  0.77660168  0.39311530  0.31088579    -0.27900
F1687       F  0.77176040  0.37964518  0.38715053    -0.20000
H1688       H  0.71991346  0.35187478  0.37128705     0.15700
F1689       F  0.74011225  0.37683888  0.27833289    -0.23700
H1690       H  0.79226736  0.40467146  0.29392881     0.17500
C1691       C  0.61159452  0.43497002  0.33817874    -0.27800
C1692       C  0.59598155  0.40512337  0.33351142     0.05800
C1693       C  0.56624335  0.38996777  0.33519467     0.25500
C1694       C  0.55253598  0.40453981  0.34173533    -0.12200
C1695       C  0.56814541  0.43440801  0.34676237    -0.26200
C1696       C  0.59793517  0.44956341  0.34465825     0.36300
C1697       C  0.61097760  0.39004821  0.32873639     0.05900
F1698       F  0.55045185  0.36103226  0.33167172    -0.20000
H1699       H  0.52953885  0.39229317  0.34320373     0.15700
F1700       F  0.61396179  0.47842047  0.34907855    -0.23700
H1701       H  0.63459924  0.44706289  0.33692943     0.17500
C1702       C  0.60525726  0.36974487  0.30536925     0.25500
C1703       C  0.61950105  0.35555317  0.30175417    -0.12200
C1704       C  0.63983061  0.36163437  0.32113155    -0.26300
C1705       C  0.64558298  0.38201492  0.34440638     0.36400
C1706       C  0.63131015  0.39606410  0.34805539    -0.27900
F1707       F  0.58639220  0.36408695  0.28574810    -0.20000
H1708       H  0.61485233  0.33995018  0.28364957     0.15700
F1709       F  0.66426195  0.38761032  0.36424640    -0.23700
H1710       H  0.63578132  0.41138092  0.36639865     0.17500
C1711       C  0.89099200  0.12826594  0.24304956    -0.27800
C1712       C  0.88233357  0.10484900  0.22273804     0.05800
C1713       C  0.85948700  0.09605355  0.20564262     0.25500
C1714       C  0.84578900  0.11063521  0.20867268    -0.12200
C1715       C  0.85460753  0.13425452  0.22871779    -0.26200
C1716       C  0.87729710  0.14297018  0.24599500     0.36300
C1717       C  0.89780609  0.09033365  0.21843811     0.05900
F1718       F  0.85111405  0.07407017  0.18519987    -0.20000
H1719       H  0.82865926  0.10388323  0.19481646     0.15700
F1720       F  0.88591734  0.16537343  0.26592183    -0.23700
H1721       H  0.90837787  0.13515157  0.25658762     0.17500
C1722       C  0.92730110  0.10607246  0.21310148     0.25500
C1723       C  0.94144765  0.09202196  0.20650666    -0.12200
C1724       C  0.92646959  0.06208492  0.20501009    -0.26300
C1725       C  0.89702577  0.04634968  0.21125741     0.36400
C1726       C  0.88290606  0.06045152  0.21794777    -0.27900
F1727       F  0.94227865  0.13495560  0.21292939    -0.20000
H1728       H  0.96411946  0.10463874  0.20190646     0.15700
F1729       F  0.88177036  0.01740896  0.21065385    -0.23700
H1730       H  0.86020358  0.04800097  0.22240589     0.17500
C1731       C  0.88848149  0.27289710  0.24034756    -0.27800
C1732       C  0.89163670  0.28258149  0.21293975     0.05800
C1733       C  0.87757253  0.26267958  0.18979268     0.25500
C1734       C  0.86074180  0.23352526  0.19408074    -0.12200
C1735       C  0.85809106  0.22386983  0.22133158    -0.26200
C1736       C  0.87199888  0.24368584  0.24450640     0.36300
C1737       C  0.90930583  0.31342468  0.20854049     0.05900
F1738       F  0.87984486  0.27151011  0.16318300    -0.20000
H1739       H  0.85007897  0.21837155  0.17602239     0.15700
F1740       F  0.86949552  0.23471886  0.27109444    -0.23700
H1741       H  0.89913733  0.28800362  0.25842692     0.17500
C1742       C  0.90257358  0.33220446  0.22362123     0.25500
C1743       C  0.91786017  0.36089529  0.21746976    -0.12200
C1744       C  0.93995724  0.37123975  0.19607648    -0.26300
C1745       C  0.94771601  0.35276182  0.18216604     0.36400
C1746       C  0.93236236  0.32402940  0.18830187    -0.27900
F1747       F  0.88018956  0.32245423  0.24307275    -0.20000
H1748       H  0.91144924  0.37464853  0.22844249     0.15700
F1749       F  0.96980678  0.36231502  0.16236197    -0.23700
H1750       H  0.93812254  0.30990114  0.17691821     0.17500
C1751       C  0.72314782  0.08729142  0.20422226    -0.27800
C1752       C  0.70687403  0.09861036  0.21431465     0.05800
C1753       C  0.71965357  0.12526820  0.23000739     0.25500
C1754       C  0.74852052  0.14059663  0.23484893    -0.12200
C1755       C  0.76520564  0.12987322  0.22368705    -0.26200
C1756       C  0.75207009  0.10282332  0.20838723     0.36300
C1757       C  0.67729055  0.08373912  0.20618408     0.05900
F1758       F  0.70457583  0.13714632  0.23933273    -0.20000
H1759       H  0.75793777  0.16117262  0.24691445     0.15700
F1760       F  0.76725108  0.09194636  0.19589479    -0.23700
H1761       H  0.71356672  0.06670669  0.19211140     0.17500
C1762       C  0.67068761  0.07561319  0.17704918     0.25500
C1763       C  0.64321830  0.06398156  0.16901076    -0.12200
C1764       C  0.62198550  0.06053618  0.18975928    -0.26300
C1765       C  0.62823046  0.06739243  0.21906683     0.36400
C1766       C  0.65576860  0.07893377  0.22715197    -0.27900
F1767       F  0.69109836  0.08040902  0.15615116    -0.20000
H1768       H  0.63888554  0.05879858  0.14625977     0.15700
F1769       F  0.60793481  0.06338006  0.23979898    -0.23700
H1770       H  0.66045557  0.08461937  0.24980257     0.17500
C1771       C  0.86469334  0.09746034  0.44419690    -0.27800
C1772       C  0.88795493  0.10501154  0.46005563     0.05800
C1773       C  0.89635114  0.12660612  0.48257845     0.25500
C1774       C  0.88175559  0.14024721  0.48893178    -0.12200
C1775       C  0.85839147  0.13248699  0.47325913    -0.26200
C1776       C  0.84993247  0.11094092  0.45075672     0.36300
C1777       C  0.90346776  0.09053140  0.45291683     0.05900
F1778       F  0.90734039  0.12529186  0.99141115    -0.20000
H1779       H  0.87903037  0.14944055  0.00171972     0.15700
F1780       F  0.82817398  0.10376423  0.43434994    -0.23700
H1781       H  0.85824252  0.08143004  0.42625570     0.17500
C1782       C  0.88880779  0.06063139  0.44824185     0.25500
C1783       C  0.90370891  0.04728760  0.44194541    -0.12200
C1784       C  0.93344922  0.06337062  0.44041900    -0.26300
C1785       C  0.94812851  0.09326129  0.44512646     0.36400
C1786       C  0.93321714  0.10662581  0.45098791    -0.27900
F1787       F  0.86009309  0.04418611  0.45059978    -0.20000
H1788       H  0.89186962  0.02422568  0.43858929     0.15700
F1789       F  0.97685255  0.10965024  0.44442627    -0.23700
H1790       H  0.94502974  0.12971205  0.45399395     0.17500
C1791       C  0.90668841  0.33112742  0.47891495    -0.27800
C1792       C  0.91186726  0.31241622  0.46125336     0.05800
C1793       C  0.92992038  0.32203278  0.43652038     0.25500
C1794       C  0.94224781  0.34999819  0.42924456    -0.12200
C1795       C  0.93645674  0.36866440  0.44631317    -0.26200
C1796       C  0.91874290  0.35909483  0.47147545     0.36300
C1797       C  0.89591264  0.28208303  0.46679594     0.05900
F1798       F  0.93498115  0.30410347  0.41905005    -0.20000
H1799       H  0.95580033  0.35681015  0.40974684     0.15700
F1800       F  0.91197931  0.37617082  0.48810872    -0.23700
H1801       H  0.88394743  0.32205473  0.99878358     0.17500
C1802       C  0.90193923  0.27255651  0.48986597     0.25500
C1803       C  0.88807251  0.24084332  0.99422888    -0.12200
C1804       C  0.86395250  0.22391864  0.47681497    -0.26300
C1805       C  0.85824297  0.23358577  0.45358972     0.36400
C1806       C  0.87419599  0.26248037  0.44863014    -0.27900
F1807       F  0.93046173  0.28609398  0.00386078    -0.20000
H1808       H  0.89532736  0.23100461  0.00652983     0.15700
F1809       F  0.83765576  0.21495123  0.43532426    -0.23700
H1810       H  0.86955806  0.26966251  0.43065405     0.17500
C1811       C  0.66106816  0.08789728  0.49009896    -0.27800
C1812       C  0.68066711  0.08348852  0.47361362     0.05800
C1813       C  0.67207516  0.06496063  0.44862890     0.25500
C1814       C  0.64494393  0.05282660  0.43899127    -0.12200
C1815       C  0.62587549  0.05894192  0.45409873    -0.26200
C1816       C  0.63372500  0.07559898  0.48054747     0.36300
C1817       C  0.71106061  0.10167565  0.47928044     0.05900
F1818       F  0.69060934  0.06004524  0.43261603    -0.20000
H1819       H  0.63933546  0.03965423  0.41890020     0.15700
F1820       F  0.61575472  0.08150032  0.49625743    -0.23700
H1821       H  0.66748197  0.10221162  0.50942810     0.17500
C1822       C  0.72919642  0.12336536  0.46076522     0.25500
C1823       C  0.75835031  0.13910642  0.46369115    -0.12200
C1824       C  0.77000262  0.13343569  0.48504880    -0.26300
C1825       C  0.74627209  0.10975853  0.00017387     0.36400
C1826       C  0.72240599  0.09664373  0.50149756    -0.27900
F1827       F  0.71862924  0.12880142  0.43933847    -0.20000
H1828       H  0.77197303  0.15516280  0.44857497     0.15700
F1829       F  0.75605945  0.09681372  0.01357228    -0.23700
H1830       H  0.70285869  0.07522883  0.00617169     0.17500
C1831       C  0.84419591  0.14824632  0.47927123     0.03600
C1832       C  0.86042166  0.17811134  0.47922682    -0.12600
C1833       C  0.84721575  0.19327755  0.48159843     0.01100
C1834       C  0.81767338  0.17862683  0.48510051    -0.11100
C1835       C  0.80115743  0.14881934  0.48570494     0.03600
C1836       C  0.81454785  0.13368861  0.48289083    -0.10500
H1837       H  0.88319649  0.18939981  0.47546528     0.09200
H1838       H  0.80746124  0.19038940  0.48635489     0.06700
H1839       H  0.80187810  0.11057607  0.48231562     0.06500
C1840       C  0.84920278  0.14535219  0.72963750     0.03600
C1841       C  0.81961774  0.12925748  0.73121218    -0.12600
C1842       C  0.80458095  0.14223751  0.72976437     0.01100
C1843       C  0.81967127  0.17204780  0.72845571    -0.11100
C1844       C  0.84932065  0.18842536  0.72864107     0.03600
C1845       C  0.86402593  0.17502896  0.72917738    -0.10500
H1846       H  0.80840876  0.10634427  0.73249096     0.09200
H1847       H  0.80854892  0.18247198  0.72646715     0.06700
H1848       H  0.88696235  0.18752126  0.72739240     0.06500
C1849       C  0.65237758  0.34167509  0.82079092     0.03600
C1850       C  0.63660751  0.31172780  0.81705231    -0.12600
C1851       C  0.65015362  0.29673032  0.81306014     0.01100
C1852       C  0.67990631  0.31220882  0.81159205    -0.11100
C1853       C  0.69613364  0.34208590  0.81620346     0.03600
C1854       C  0.68214214  0.35668322  0.82048933    -0.10500
H1855       H  0.61371257  0.30007681  0.81887077     0.09200
H1856       H  0.69057281  0.30087438  0.80756564     0.06700
H1857       H  0.69435057  0.37969224  0.82431218     0.06500
C1858       C  0.65434153  0.34527854  0.56663828     0.03600
C1859       C  0.68362698  0.36113762  0.57076364    -0.12600
C1860       C  0.69764198  0.34724885  0.57342860     0.01100
C1861       C  0.68207481  0.31737404  0.57260271    -0.11100
C1862       C  0.65284968  0.30130049  0.56909991     0.03600
C1863       C  0.63956903  0.31533309  0.56425574    -0.10500
H1864       H  0.69530947  0.38420440  0.57334729     0.09200
H1865       H  0.69263722  0.30664137  0.57572252     0.06700
H1866       H  0.61731477  0.30276229  0.55973773     0.06500
N1867       N  0.55424539  0.04619864  0.93464992    -0.05700
N1868       N  0.57259858  0.05807040  0.95529649    -0.57800
N1869       N  0.54116346  0.05711183  0.87081004    -0.05400
N1870       N  0.55105062  0.07468716  0.84985836    -0.59900
N1871       N  0.53089647  0.06619689  0.89272235    -0.05000
N1872       N  0.53348510  0.09003181  0.88712513    -0.57800
N1873       N  0.56370783  0.03632025  0.91267672    -0.04600
N1874       N  0.58843177  0.04102741  0.91794391    -0.60300
C1875       C  0.59376045  0.05449855  0.94460219     0.96500
C1876       C  0.54593094  0.09503540  0.86026234     0.96300
N1877       N  0.99705859  0.47708628  0.83671634    -0.05900
N1878       N  0.98591900  0.47069424  0.81139382    -0.58400
N1879       N  0.54483633  0.47997252  0.86809186    -0.04000
N1880       N  0.56602153  0.47606808  0.86477885    -0.59600
N1881       N  0.52046441  0.45520681  0.86782107    -0.05900
N1882       N  0.52454832  0.43406206  0.86448366    -0.58600
N1883       N  0.51754706  0.99934464  0.83312939    -0.03600
N1884       N  0.52460215  0.00971709  0.80748037    -0.59700
Mn1885     Mn  0.54141214  0.01819558  0.87237797     1.18400
C1886       C  0.00508396  0.49321438  0.79622867     0.98600
C1887       C  0.55303572  0.44727766  0.86271696     0.99200
N1888       N  0.97523090  0.04089365  0.92146112    -0.05900
N1889       N  0.97053574  0.06161135  0.92297403    -0.62200
N1890       N  0.97876355  0.49453597  0.97481872    -0.04700
N1891       N  0.97255241  0.48419330  0.00043427    -0.62900
N1892       N  0.49597373  0.01932938  0.97108852    -0.05400
N1893       N  0.50547954  0.02694518  0.99730314    -0.62500
N1894       N  0.95112742  0.01588656  0.92082668    -0.04300
N1895       N  0.92961014  0.01906614  0.92180450    -0.63200
Mn1896     Mn  0.51398526  0.04374285  0.93257829     1.10700
C1897       C  0.94196081  0.04767842  0.92296026     0.99800
C1898       C  0.99832337  0.50044333  0.51667022     0.99900
N1899       N  0.96382808  0.42817541  0.91325273    -0.05400
N1900       N  0.96113478  0.40393711  0.91727736    -0.60800
N1901       N  0.93023132  0.45852810  0.89656165    -0.04700
N1902       N  0.90526872  0.45382228  0.89220524    -0.57500
N1903       N  0.93936788  0.44914278  0.87385524    -0.06100
N1904       N  0.92054243  0.43747953  0.85366601    -0.60400
N1905       N  0.95395410  0.43666442  0.93605176    -0.05000
N1906       N  0.94400985  0.41808200  0.95605757    -0.57600
Mn1907     Mn  0.97977952  0.45162579  0.87427986     1.20200
Mn1908     Mn  0.95378709  0.47598618  0.93628789     1.10100
Cl1909     Cl  0.00005538  0.49802505  0.90581963    -0.85500
C1910       C  0.94885425  0.39789349  0.94409092     0.96800
C1911       C  0.89949228  0.44084218  0.86532285     0.96600
N1912       N  0.56231239  0.03863229  0.67967476    -0.05700
N1913       N  0.58211688  0.04770698  0.69826351    -0.57800
N1914       N  0.54428360  0.05688592  0.62395886    -0.05400
N1915       N  0.55478890  0.07764166  0.60640229    -0.59900
N1916       N  0.53680435  0.06433255  0.64924915    -0.05000
N1917       N  0.54215308  0.09036133  0.64945363    -0.57800
N1918       N  0.56998967  0.03145504  0.65435774    -0.04600
N1919       N  0.59515010  0.03551395  0.65509252    -0.60300
C1920       C  0.60238547  0.04546876  0.68260410     0.96500
C1921       C  0.55314111  0.09831278  0.62250504     0.96300
N1922       N  0.99322268  0.47899119  0.58590800    -0.05900
N1923       N  0.98188965  0.47356087  0.56076840    -0.58400
N1924       N  0.54300740  0.47836119  0.61030416    -0.04000
N1925       N  0.56450887  0.47512565  0.60559139    -0.59600
N1926       N  0.51889468  0.45342326  0.60969952    -0.05900
N1927       N  0.52341184  0.43263541  0.60437827    -0.58600
N1928       N  0.51649976  0.00241265  0.58062777    -0.03600
N1929       N  0.52169087  0.01472263  0.55634103    -0.59700
Mn1930     Mn  0.54403640  0.01746772  0.61694124     1.18400
C1931       C  0.00083553  0.49687525  0.54633996     0.98600
C1932       C  0.55196545  0.44650594  0.60204143     0.99200
N1933       N  0.98457149  0.03762273  0.68321578    -0.05900
N1934       N  0.98018418  0.05852866  0.68707834    -0.62200
N1935       N  0.98390383  0.48802079  0.72681190    -0.04700
N1936       N  0.97892566  0.47638905  0.75149707    -0.62900
N1937       N  0.50819831  0.00930932  0.72136040    -0.05400
N1938       N  0.51959938  0.01508366  0.74649859    -0.62500
N1939       N  0.96038509  0.01273132  0.68283412    -0.04300
N1940       N  0.93897421  0.01614171  0.68643497    -0.63200
Mn1941     Mn  0.52273821  0.03731889  0.68577584     1.10700
C1942       C  0.95164936  0.04480564  0.68899706     0.99800
C1943       C  0.00162222  0.49599905  0.76669406     0.99900
N1944       N  0.96505860  0.42535128  0.65935380    -0.05400
N1945       N  0.96238127  0.40061433  0.66048655    -0.60800
N1946       N  0.93080743  0.45729222  0.65252107    -0.05900
N1947       N  0.90602157  0.45396385  0.65110909    -0.57500
N1948       N  0.93863359  0.44972982  0.62751724    -0.06100
N1949       N  0.91922090  0.44099948  0.60852841    -0.60400
N1950       N  0.95696945  0.43282991  0.68426932    -0.05000
N1951       N  0.94842316  0.41321380  0.70280769    -0.57600
Mn1952     Mn  0.97848208  0.45126894  0.62196939     1.20200
Mn1953     Mn  0.95654748  0.47201661  0.69020772     1.10100
Cl1954     Cl  0.00041683  0.49566847  0.65661506    -0.85500
C1955       C  0.95216261  0.39336299  0.68776094     0.96800
C1956       C  0.89906041  0.44390855  0.62354871     0.96600
C1957       C  0.58607356  0.16114799  0.57597236    -0.27800
C1958       C  0.59261046  0.18364404  0.59686686     0.05800
C1959       C  0.58517603  0.17774013  0.62606896     0.25500
C1960       C  0.57160713  0.14978876  0.63410321    -0.12200
C1961       C  0.56551400  0.12731792  0.61327499    -0.26200
C1962       C  0.57273259  0.13320683  0.58402685     0.36300
C1963       C  0.60722173  0.21319221  0.58815321     0.05900
F1964       F  0.59191636  0.19910855  0.64692826    -0.20000
H1965       H  0.56655584  0.14585919  0.65680973     0.15700
F1966       F  0.56684349  0.11203675  0.56318636    -0.23700
H1967       H  0.59128060  0.16524834  0.55330518     0.17500
C1968       C  0.63229841  0.22493431  0.57058252     0.25500
C1969       C  0.64633507  0.25318658  0.56327651    -0.12200
C1970       C  0.63595131  0.27038820  0.57380219    -0.26300
C1971       C  0.61072241  0.25845703  0.59132187     0.36400
C1972       C  0.59640984  0.23006367  0.59805078    -0.27900
F1973       F  0.64390187  0.20951146  0.56155198    -0.20000
H1974       H  0.66573147  0.26181994  0.54987059     0.15700
F1975       F  0.60066182  0.27455217  0.60339305    -0.23700
H1976       H  0.57705993  0.22135906  0.61155868     0.17500
C1977       C  0.83640477  0.41021677  0.57605269    -0.27800
C1978       C  0.81628677  0.41109829  0.59555586     0.05800
C1979       C  0.82424947  0.42509464  0.62298083     0.25500
C1980       C  0.85166985  0.43688122  0.63133019    -0.12200
C1981       C  0.87153363  0.43464896  0.61256966    -0.26200
C1982       C  0.86394705  0.42188657  0.58446574     0.36300
C1983       C  0.78628237  0.39470180  0.58882847     0.05900
F1984       F  0.80511909  0.42643577  0.64203269    -0.20000
H1985       H  0.85699603  0.44684725  0.65295717     0.15700
F1986       F  0.88263950  0.41962415  0.56556840    -0.23700
H1987       H  0.83039155  0.39932992  0.55484593     0.17500
C1988       C  0.77660322  0.40218168  0.56711895     0.25500
C1989       C  0.74764941  0.38683986  0.56229461    -0.12200
C1990       C  0.72818399  0.36380591  0.57894593    -0.26300
C1991       C  0.73815343  0.35651867  0.60071695     0.36400
C1992       C  0.76694636  0.37179101  0.60542141    -0.27900
F1993       F  0.79502420  0.42463574  0.55116419    -0.20000
H1994       H  0.74042858  0.39277159  0.54542622     0.15700
F1995       F  0.72004987  0.33522247  0.61810740    -0.23700
H1996       H  0.77421752  0.36595957  0.62234090     0.17500
C1997       C  0.59796773  0.36233651  0.58465071    -0.27800
C1998       C  0.61059334  0.38895859  0.57328357     0.05800
C1999       C  0.63735974  0.40095369  0.55881199     0.25500
C2000       C  0.65113813  0.38630253  0.55582558    -0.12200
C2001       C  0.63870620  0.35975108  0.56771142    -0.26200
C2002       C  0.61183209  0.34797294  0.58224155     0.36300
C2003       C  0.59620871  0.40453523  0.57850218     0.05900
F2004       F  0.65014282  0.42677573  0.54760721    -0.20000
H2005       H  0.67164123  0.39585942  0.54439395     0.15700
F2006       F  0.59946145  0.32340060  0.59576274    -0.23700
H2007       H  0.57771755  0.35313199  0.59658367     0.17500
C2008       C  0.56747776  0.39088301  0.57272550     0.25500
C2009       C  0.55318119  0.40460933  0.58071130    -0.12200
C2010       C  0.56735631  0.43226715  0.59419890    -0.26300
C2011       C  0.59622642  0.44615092  0.59951172     0.36400
C2012       C  0.61045925  0.43228512  0.59177520    -0.27900
F2013       F  0.55327319  0.36428920  0.55930898    -0.20000
H2014       H  0.53102718  0.39365637  0.57608925     0.15700
F2015       F  0.61046230  0.47269111  0.61302108    -0.23700
H2016       H  0.63243260  0.44289971  0.59696321     0.17500
C2017       C  0.62540445  0.22196718  0.83099039    -0.27800
C2018       C  0.59953375  0.20541182  0.81768258     0.05800
C2019       C  0.59051469  0.21857461  0.80185278     0.25500
C2020       C  0.60749444  0.24816930  0.79939199    -0.12200
C2021       C  0.63330456  0.26502757  0.81330907    -0.26200
C2022       C  0.64196852  0.25145389  0.82926998     0.36300
C2023       C  0.58128146  0.17503039  0.82345448     0.05900
F2024       F  0.56517913  0.20291690  0.78931254    -0.20000
H2025       H  0.60023686  0.25798108  0.78702159     0.15700
F2026       F  0.66548632  0.26674830  0.84487610    -0.23700
H2027       H  0.63217149  0.21208582  0.84394054     0.17500
C2028       C  0.58835521  0.15560791  0.81116398     0.25500
C2029       C  0.57540330  0.12873955  0.82204167    -0.12200
C2030       C  0.55569727  0.12119541  0.84569836    -0.26300
C2031       C  0.54743610  0.14011646  0.85676704     0.36400
C2032       C  0.56011813  0.16676956  0.84558146    -0.27900
F2033       F  0.60894159  0.16330160  0.78981857    -0.20000
H2034       H  0.58202616  0.11452171  0.81302491     0.15700
F2035       F  0.52814819  0.13352424  0.87929619    -0.23700
H2036       H  0.55474591  0.18174217  0.85547148     0.17500
C2037       C  0.82885058  0.42836354  0.84993014    -0.27800
C2038       C  0.81659318  0.40234104  0.83321928     0.05800
C2039       C  0.83285466  0.39052264  0.82466043     0.25500
C2040       C  0.86052258  0.40399274  0.83378644    -0.12200
C2041       C  0.87212693  0.42909596  0.85207585    -0.26200
C2042       C  0.85625970  0.44153328  0.85951554     0.36300
C2043       C  0.78611572  0.38646781  0.82723903     0.05900
F2044       F  0.82166820  0.36556966  0.80812574    -0.20000
H2045       H  0.87232353  0.39405312  0.82772522     0.15700
F2046       F  0.86704824  0.46617678  0.87652030    -0.23700
H2047       H  0.81668109  0.43780445  0.85666505     0.17500
C2048       C  0.76704064  0.36013665  0.83912872     0.25500
C2049       C  0.73803640  0.34590094  0.83519807    -0.12200
C2050       C  0.72733136  0.35744763  0.81914947    -0.26300
C2051       C  0.74655652  0.38373788  0.80694334     0.36400
C2052       C  0.77564845  0.39818144  0.81121429    -0.27900
F2053       F  0.77638350  0.34872706  0.85554895    -0.20000
H2054       H  0.72380226  0.32603839  0.84537868     0.15700
F2055       F  0.73734371  0.39523749  0.79050081    -0.23700
H2056       H  0.79008059  0.41851510  0.80193678     0.17500
C2057       C  0.61022496  0.43113044  0.84473405    -0.27800
C2058       C  0.59423103  0.40116508  0.84357870     0.05800
C2059       C  0.56477103  0.38656754  0.84910086     0.25500
C2060       C  0.55169687  0.40178452  0.85551853    -0.12200
C2061       C  0.56764505  0.43180490  0.85660500    -0.26200
C2062       C  0.59716525  0.44638499  0.85107782     0.36300
C2063       C  0.60866474  0.38551805  0.83763299     0.05900
F2064       F  0.54874066  0.35765911  0.84911191    -0.20000
H2065       H  0.52890443  0.38993039  0.85978112     0.15700
F2066       F  0.61344176  0.47530249  0.85153350    -0.23700
H2067       H  0.63302549  0.44279085  0.84050975     0.17500
C2068       C  0.60070369  0.36404598  0.81508274     0.25500
C2069       C  0.61504541  0.34997119  0.80964790    -0.12200
C2070       C  0.63750271  0.35698367  0.82657668    -0.26300
C2071       C  0.64510053  0.37818754  0.84938359     0.36400
C2072       C  0.63093771  0.39238662  0.85463152    -0.27900
F2073       F  0.57958611  0.35720242  0.79787529    -0.20000
H2074       H  0.60880916  0.33374520  0.79191728     0.15700
F2075       F  0.66557946  0.38455610  0.86724595    -0.23700
H2076       H  0.63711268  0.40858901  0.87237969     0.17500
C2077       C  0.90103046  0.12369500  0.73470459    -0.27800
C2078       C  0.89341282  0.10312111  0.71136932     0.05800
C2079       C  0.87124732  0.09654012  0.69434860     0.25500
C2080       C  0.85677522  0.11018656  0.70081170    -0.12200
C2081       C  0.86431760  0.13069505  0.72415553    -0.26200
C2082       C  0.88667052  0.13757107  0.74100844     0.36300
C2083       C  0.90834962  0.08827653  0.70510310     0.05900
F2084       F  0.86406098  0.07744536  0.67108508    -0.20000
H2085       H  0.83996719  0.10513651  0.68726244     0.15700
F2086       F  0.89419507  0.15723017  0.76377805    -0.23700
H2087       H  0.91788699  0.12875698  0.74818624     0.17500
C2088       C  0.93800267  0.10376843  0.70191421     0.25500
C2089       C  0.95189953  0.08941229  0.69648572    -0.12200
C2090       C  0.93644490  0.05944596  0.69404236    -0.26300
C2091       C  0.90668613  0.04395557  0.69682172     0.36400
C2092       C  0.89283733  0.05835581  0.70241706    -0.27900
F2093       F  0.95346767  0.13274774  0.70353041    -0.20000
H2094       H  0.97480626  0.10181392  0.69419742     0.15700
F2095       F  0.89090994  0.01498174  0.69437291    -0.23700
H2096       H  0.86994182  0.04612165  0.70499745     0.17500
C2097       C  0.89757259  0.26800469  0.74373330    -0.27800
C2098       C  0.89902888  0.27780183  0.71686943     0.05800
C2099       C  0.88346570  0.25809853  0.69421457     0.25500
C2100       C  0.86656507  0.22900470  0.69850570    -0.12200
C2101       C  0.86536961  0.21922412  0.72522833    -0.26200
C2102       C  0.88105833  0.23879692  0.74783159     0.36300
C2103       C  0.91586993  0.30858358  0.71257564     0.05900
F2104       F  0.88430892  0.26709419  0.66811771    -0.20000
H2105       H  0.85475644  0.21397882  0.68080927     0.15700
F2106       F  0.88028661  0.22957569  0.77376167    -0.23700
H2107       H  0.90945996  0.28300252  0.76139649     0.17500
C2108       C  0.90890024  0.32680914  0.72854883     0.25500
C2109       C  0.92203712  0.35501562  0.72140132    -0.12200
C2110       C  0.94220167  0.36533812  0.69818828    -0.26300
C2111       C  0.95056055  0.34758972  0.68354100     0.36400
C2112       C  0.93734804  0.31936615  0.69066560    -0.27900
F2113       F  0.88803366  0.31678213  0.74971022    -0.20000
H2114       H  0.91531911  0.36826999  0.73304021     0.15700
F2115       F  0.97092205  0.35721688  0.66187305    -0.23700
H2116       H  0.94321114  0.30562389  0.67850384     0.17500
C2117       C  0.73159917  0.08333373  0.70604992    -0.27800
C2118       C  0.71496851  0.09346996  0.71892035     0.05800
C2119       C  0.72744525  0.11839946  0.73748632     0.25500
C2120       C  0.75644470  0.13363618  0.74175621    -0.12200
C2121       C  0.77345796  0.12446409  0.72738039    -0.26200
C2122       C  0.76059528  0.09883619  0.70967800     0.36300
C2123       C  0.68560610  0.07966949  0.71024221     0.05900
F2124       F  0.71202250  0.12894940  0.75013193    -0.20000
H2125       H  0.76575945  0.15307168  0.75577607     0.15700
F2126       F  0.77612591  0.08960461  0.69426520    -0.23700
H2127       H  0.72227902  0.06393452  0.69194868     0.17500
C2128       C  0.67990079  0.07384616  0.68077484     0.25500
C2129       C  0.65255327  0.06183243  0.67225050    -0.12200
C2130       C  0.63043855  0.05595742  0.69275802    -0.26300
C2131       C  0.63592299  0.06151296  0.72228026     0.36400
C2132       C  0.66336813  0.07314692  0.73091189    -0.27900
F2133       F  0.70099175  0.08095051  0.66007677    -0.20000
H2134       H  0.64891852  0.05804869  0.64932920     0.15700
F2135       F  0.61488888  0.05572014  0.74270075    -0.23700
H2136       H  0.66731001  0.07721374  0.75376661     0.17500
C2137       C  0.85606950  0.09543283  0.93465944    -0.27800
C2138       C  0.87861987  0.10097374  0.95048160     0.05800
C2139       C  0.88638214  0.12025557  0.97499226     0.25500
C2140       C  0.87245358  0.13436958  0.98291481    -0.12200
C2141       C  0.85037736  0.12939392  0.96679171    -0.26200
C2142       C  0.84198209  0.10950616  0.94271253     0.36300
C2143       C  0.89453882  0.08727368  0.94120379     0.05900
F2144       F  0.91834454  0.13421517  0.49882035    -0.20000
H2145       H  0.88864016  0.15690816  0.50630442     0.15700
F2146       F  0.82112679  0.10469235  0.92627041    -0.23700
H2147       H  0.84988540  0.08075539  0.91556688     0.17500
C2148       C  0.88054485  0.05746608  0.93680163     0.25500
C2149       C  0.89612515  0.04484936  0.93002684    -0.12200
C2150       C  0.92589043  0.06167259  0.92743862    -0.26300
C2151       C  0.93979677  0.09159141  0.93079266     0.36400
C2152       C  0.92419137  0.10415871  0.93763692    -0.27900
F2153       F  0.85192769  0.04049166  0.94029703    -0.20000
H2154       H  0.88482968  0.02176535  0.92750909     0.15700
F2155       F  0.96844329  0.10876183  0.92804073    -0.23700
H2156       H  0.93533787  0.12723298  0.94047550     0.17500
C2157       C  0.90273496  0.33115403  0.98438189    -0.27800
C2158       C  0.91298103  0.31432609  0.97218225     0.05800
C2159       C  0.93716388  0.32625874  0.95343058     0.25500
C2160       C  0.94971835  0.35416919  0.94551102    -0.12200
C2161       C  0.93855127  0.37059749  0.95651467    -0.26200
C2162       C  0.91557448  0.35922185  0.97693158     0.36300
C2163       C  0.89585963  0.28342926  0.97570977     0.05900
F2164       F  0.94738134  0.31030391  0.94129119    -0.20000
H2165       H  0.96753741  0.36257082  0.92988143     0.15700
F2166       F  0.90418215  0.37436305  0.98808674    -0.23700
H2167       H  0.89232164  0.32365047  0.49782222     0.17500
C2168       C  0.90515471  0.27033348  0.99128463     0.25500
C2169       C  0.88610962  0.24347524  0.49470493    -0.12200
C2170       C  0.86168483  0.22421650  0.98150665    -0.26300
C2171       C  0.85287991  0.23748696  0.96538805     0.36400
C2172       C  0.86974790  0.26683330  0.96278256    -0.27900
F2173       F  0.92327632  0.29129447  0.50732049    -0.20000
H2174       H  0.89091308  0.23621138  0.51246406     0.15700
F2175       F  0.82840395  0.22194249  0.95127134    -0.23700
H2176       H  0.86263499  0.27665027  0.95025156     0.17500
C2177       C  0.65800335  0.10175688  0.98990562    -0.27800
C2178       C  0.67595473  0.09284218  0.97796276     0.05800
C2179       C  0.66589985  0.06993170  0.95698020     0.25500
C2180       C  0.63867203  0.05686760  0.94724981    -0.12200
C2181       C  0.62087207  0.06628077  0.95832885    -0.26200
C2182       C  0.63047813  0.08838947  0.98042246     0.36300
C2183       C  0.70607971  0.10910094  0.98476252     0.05900
F2184       F  0.68308468  0.06136054  0.94462785    -0.20000
H2185       H  0.63182209  0.03986378  0.93029706     0.15700
F2186       F  0.61396053  0.09809515  0.99176436    -0.23700
H2187       H  0.66561609  0.11957160  0.00600738     0.17500
C2188       C  0.72464211  0.13624929  0.97445398     0.25500
C2189       C  0.75382024  0.14956385  0.97600379    -0.12200
C2190       C  0.76510633  0.13628379  0.98826004    -0.26300
C2191       C  0.75181720  0.11239488  0.50434234     0.36400
C2192       C  0.71701003  0.09618032  0.99807494    -0.27900
F2193       F  0.71464112  0.14901064  0.96105735    -0.20000
H2194       H  0.76760421  0.16973042  0.96626183     0.15700
F2195       F  0.76251730  0.10712645  0.52576857    -0.23700
H2196       H  0.70858882  0.08006438  0.51602673     0.17500
C2197       C  0.84523731  0.65135541  0.97222125     0.03600
C2198       C  0.86297410  0.68116259  0.97267396    -0.12600
C2199       C  0.85159710  0.69805879  0.97649600     0.01100
C2200       C  0.82216963  0.68508128  0.98003027    -0.11100
C2201       C  0.80403263  0.65517201  0.97922186     0.03600
C2202       C  0.81579787  0.63846015  0.97534185    -0.10500
H2203       H  0.88570422  0.69127102  0.96969465     0.09200
H2204       H  0.81339892  0.69823768  0.98261863     0.06700
H2205       H  0.80205123  0.61539323  0.97438513     0.06500
C2206       C  0.84960386  0.65385705  0.22659296     0.03600
C2207       C  0.82009166  0.63876364  0.22882792    -0.12600
C2208       C  0.80587278  0.65208988  0.22504059     0.01100
C2209       C  0.82173238  0.68148858  0.22097795    -0.11100
C2210       C  0.85140516  0.69711565  0.22059330     0.03600
C2211       C  0.86527403  0.68318675  0.22315320    -0.10500
H2212       H  0.80823886  0.61625664  0.23265754     0.09200
H2213       H  0.81116886  0.69214296  0.21751556     0.06700
H2214       H  0.88817998  0.69490698  0.22099699     0.06500
C2215       C  0.65212135  0.84578553  0.31916787     0.03600
C2216       C  0.63448008  0.81589694  0.31762525    -0.12600
C2217       C  0.64612883  0.79923224  0.31482850     0.01100
C2218       C  0.67564654  0.81257777  0.31213787    -0.11100
C2219       C  0.69357885  0.84242584  0.31325204     0.03600
C2220       C  0.68165005  0.85895095  0.31672719    -0.10500
H2221       H  0.61174537  0.80568023  0.32071744     0.09200
H2222       H  0.68470725  0.79969393  0.31027465     0.06700
H2223       H  0.69532136  0.88203906  0.31866993     0.06500
C2224       C  0.64522105  0.85386860  0.05979504     0.03600
C2225       C  0.67465232  0.87033903  0.06273620    -0.12600
C2226       C  0.68924832  0.85715496  0.06544033     0.01100
C2227       C  0.67421001  0.82732351  0.06579029    -0.11100
C2228       C  0.64482852  0.81043437  0.06241941     0.03600
C2229       C  0.63092812  0.82395878  0.05774310    -0.10500
H2230       H  0.68602069  0.89341061  0.06476822     0.09200
H2231       H  0.68541723  0.81745240  0.06972018     0.06700
H2232       H  0.60859589  0.81119208  0.05357638     0.06500
N2233       N  0.56163993  0.54380878  0.43028790    -0.05700
N2234       N  0.57933965  0.55096492  0.45078436    -0.57800
N2235       N  0.54677886  0.56162336  0.37129770    -0.05400
N2236       N  0.55427753  0.58010630  0.35173050    -0.59900
N2237       N  0.53769271  0.56917632  0.39544382    -0.05000
N2238       N  0.53872296  0.59286173  0.39281972    -0.57800
N2239       N  0.57025442  0.53587060  0.40606187    -0.04600
N2240       N  0.59386463  0.53737235  0.40952290    -0.60300
C2241       C  0.59929157  0.54668350  0.43751921     0.96500
C2242       C  0.54901491  0.59942693  0.36543193     0.96300
N2243       N  0.99386739  0.97879386  0.32269959    -0.05900
N2244       N  0.98240017  0.97278891  0.29757762    -0.58400
N2245       N  0.54402979  0.98182348  0.36714895    -0.04000
N2246       N  0.56539335  0.97841079  0.36607124    -0.59600
N2247       N  0.51981108  0.95696330  0.36626095    -0.05900
N2248       N  0.52422164  0.93606290  0.36460245    -0.58600
N2249       N  0.52135348  0.50715293  0.32875979    -0.03600
N2250       N  0.52780619  0.51936645  0.30417796    -0.59700
Mn2251     Mn  0.54671637  0.52217503  0.36674015     1.18400
C2252       C  0.00152410  0.99534526  0.28236650     0.98600
C2253       C  0.55276722  0.94976787  0.36456670     0.99200
N2254       N  0.98303433  0.54318010  0.44300000    -0.05900
N2255       N  0.97921361  0.56450906  0.44721354    -0.62200
N2256       N  0.98137577  0.99230705  0.46326750    -0.04700
N2257       N  0.97556839  0.98108710  0.48836601    -0.62900
N2258       N  0.50567382  0.51604221  0.46908103    -0.05400
N2259       N  0.51633185  0.52173161  0.49458525    -0.62500
N2260       N  0.95856306  0.51857882  0.44238613    -0.04300
N2261       N  0.93753581  0.52266053  0.44613156    -0.63200
Mn2262     Mn  0.52232672  0.54339632  0.43297909     1.10700
C2263       C  0.95072063  0.55144324  0.44905876     0.99800
C2264       C  0.98679180  0.00455752  0.00415475     0.99900
N2265       N  0.96224921  0.92745578  0.39794941    -0.05400
N2266       N  0.95802214  0.90217003  0.40012134    -0.60800
N2267       N  0.93002873  0.96051035  0.38727584    -0.04700
N2268       N  0.90499473  0.95647172  0.38533728    -0.57500
N2269       N  0.93785997  0.95184697  0.36296523    -0.06100
N2270       N  0.91807960  0.94163047  0.34395903    -0.60400
N2271       N  0.95404577  0.93595454  0.42209708    -0.05000
N2272       N  0.94392872  0.91652552  0.44117449    -0.57600
Mn2273     Mn  0.97753312  0.95242053  0.35980197     1.20200
Mn2274     Mn  0.95496657  0.97584949  0.42574820     1.10100
Cl2275     Cl  0.99967175  0.99785926  0.39310434    -0.85500
C2276       C  0.94669153  0.89563036  0.42724202     0.96800
C2277       C  0.89772622  0.94482754  0.35822379     0.96600
N2278       N  0.56427268  0.55094986  0.17736363    -0.05700
N2279       N  0.58381025  0.55968911  0.19619033    -0.57800
N2280       N  0.54589926  0.56778219  0.12049071    -0.05400
N2281       N  0.55549561  0.58780476  0.10215354    -0.59900
N2282       N  0.53840322  0.57566729  0.14552408    -0.05000
N2283       N  0.54275089  0.60121555  0.14471800    -0.57800
N2284       N  0.57192172  0.54340053  0.15226387    -0.04600
N2285       N  0.59669248  0.54673179  0.15335970    -0.60300
C2286       C  0.60381472  0.55676412  0.18084372     0.96500
C2287       C  0.55324389  0.60849196  0.11746841     0.96300
N2288       N  0.98268407  0.98469181  0.07352882    -0.05900
N2289       N  0.97077887  0.97884066  0.04870592    -0.58400
N2290       N  0.53311415  0.98568410  0.11007375    -0.04000
N2291       N  0.55460885  0.98261433  0.10395156    -0.59600
N2292       N  0.50907518  0.96068864  0.10996113    -0.05900
N2293       N  0.51361403  0.94000647  0.10361559    -0.58600
N2294       N  0.51823999  0.51179784  0.07875392    -0.03600
N2295       N  0.52276219  0.52310013  0.05396351    -0.59700
Mn2296     Mn  0.54605506  0.52840388  0.11491459     1.18400
C2297       C  0.98908547  0.00217476  0.03411922     0.98600
C2298       C  0.54211483  0.95402626  0.10007152     0.99200
N2299       N  0.98291256  0.54416726  0.19370735    -0.05900
N2300       N  0.97814023  0.56477679  0.19802228    -0.62200
N2301       N  0.97855636  0.99158653  0.21409112    -0.04700
N2302       N  0.97438877  0.97940311  0.23824428    -0.62900
N2303       N  0.51000305  0.52192282  0.21907736    -0.05400
N2304       N  0.52163652  0.52750299  0.24407086    -0.62500
N2305       N  0.95891385  0.51907355  0.19359526    -0.04300
N2306       N  0.93726328  0.52207623  0.19790728    -0.63200
Mn2307     Mn  0.52458454  0.54941193  0.18287977     1.10700
C2308       C  0.94960428  0.55068577  0.20057321     0.99800
C2309       C  0.99754766  0.99862511  0.25304570     0.99900
N2310       N  0.95816875  0.93039537  0.14525259    -0.05400
N2311       N  0.95705334  0.90635790  0.14579850    -0.60800
N2312       N  0.92263891  0.96209847  0.14195023    -0.05900
N2313       N  0.89810536  0.95959887  0.14142620    -0.57500
N2314       N  0.92974018  0.95476475  0.11638566    -0.06100
N2315       N  0.91014817  0.94709244  0.09791996    -0.60400
N2316       N  0.95079400  0.93753315  0.17076901    -0.05000
N2317       N  0.94437946  0.91845166  0.18919598    -0.57600
Mn2318     Mn  0.96968812  0.95663788  0.10862282     1.20200
Mn2319     Mn  0.94985044  0.97628753  0.17867072     1.10100
Cl2320     Cl  0.99256668  0.00068844  0.14378137    -0.85500
C2321       C  0.94855907  0.89922990  0.17339706     0.96800
C2322       C  0.89055447  0.95030640  0.11383037     0.96600
C2323       C  0.58339324  0.66964966  0.06859922    -0.27800
C2324       C  0.58696859  0.69199007  0.08845855     0.05800
C2325       C  0.57827052  0.68631692  0.11757376     0.25500
C2326       C  0.56668465  0.65897080  0.12659260    -0.12200
C2327       C  0.56372628  0.63674782  0.10691754    -0.26200
C2328       C  0.57196032  0.64228237  0.07766371     0.36300
C2329       C  0.60048200  0.72133125  0.07911181     0.05900
F2330       F  0.58205380  0.70749897  0.13757678    -0.20000
H2331       H  0.56069984  0.65540344  0.14926876     0.15700
F2332       F  0.56908747  0.62136682  0.05779787    -0.23700
H2333       H  0.58958836  0.67344786  0.04598319     0.17500
C2334       C  0.62668077  0.73455247  0.06338873     0.25500
C2335       C  0.64033050  0.76305815  0.05689474    -0.12200
C2336       C  0.62848925  0.77919440  0.06641253    -0.26300
C2337       C  0.60190206  0.76560617  0.08170812     0.36400
C2338       C  0.58800373  0.73695117  0.08751271    -0.27900
F2339       F  0.63982297  0.72041013  0.05560108    -0.20000
H2340       H  0.66057517  0.77268983  0.04491392     0.15700
F2341       F  0.58996217  0.78025141  0.09276035    -0.23700
H2342       H  0.56773582  0.72714390  0.09949283     0.17500
C2343       C  0.82748544  0.92039141  0.06738014    -0.27800
C2344       C  0.80825900  0.92249985  0.08732218     0.05800
C2345       C  0.81738832  0.93658600  0.11458640     0.25500
C2346       C  0.84461138  0.94661455  0.12245031    -0.12200
C2347       C  0.86332031  0.94283244  0.10333600    -0.26200
C2348       C  0.85488246  0.93048409  0.07525219     0.36300
C2349       C  0.77788777  0.90680127  0.08135837     0.05900
F2350       F  0.79954110  0.93968594  0.13405011    -0.20000
H2351       H  0.85066797  0.95649038  0.14399833     0.15700
F2352       F  0.87249837  0.92695416  0.05585529    -0.23700
H2353       H  0.82078926  0.90952755  0.04627798     0.17500
C2354       C  0.76843620  0.91049912  0.05650989     0.25500
C2355       C  0.73943715  0.89460946  0.05149766    -0.12200
C2356       C  0.71973607  0.87464213  0.07096651    -0.26300
C2357       C  0.72926520  0.87132420  0.09589333     0.36400
C2358       C  0.75803099  0.88715716  0.10090805    -0.27900
F2359       F  0.78711455  0.92962194  0.03740810    -0.20000
H2360       H  0.73236018  0.89754427  0.03227305     0.15700
F2361       F  0.71066145  0.85304575  0.11566345    -0.23700
H2362       H  0.76489110  0.88384915  0.12006040     0.17500
C2363       C  0.58924126  0.87049946  0.08279747    -0.27800
C2364       C  0.60062101  0.89660040  0.07072391     0.05800
C2365       C  0.62631463  0.90833315  0.05423693     0.25500
C2366       C  0.64023899  0.89387150  0.04978061    -0.12200
C2367       C  0.62906138  0.86781004  0.06219398    -0.26200
C2368       C  0.60333302  0.85632689  0.07890124     0.36300
C2369       C  0.58601457  0.91185174  0.07667747     0.05900
F2370       F  0.63788166  0.93371007  0.04244272    -0.20000
H2371       H  0.65991937  0.90320787  0.03682575     0.15700
F2372       F  0.59247132  0.83227695  0.09296793    -0.23700
H2373       H  0.56984226  0.86155627  0.09621625     0.17500
C2374       C  0.55702374  0.89780475  0.07198095     0.25500
C2375       C  0.54289525  0.91172047  0.07966106    -0.12200
C2376       C  0.55747620  0.93985649  0.09192903    -0.26300
C2377       C  0.58657101  0.95405695  0.09629765     0.36400
C2378       C  0.60065827  0.94004626  0.08877153    -0.27900
F2379       F  0.54243660  0.87069330  0.05982636    -0.20000
H2380       H  0.52052907  0.90049449  0.07586718     0.15700
F2381       F  0.60120399  0.98107543  0.10866912    -0.23700
H2382       H  0.62289082  0.95097279  0.09305623     0.17500
C2383       C  0.61622499  0.72813674  0.34514721    -0.27800
C2384       C  0.59298197  0.70996563  0.32817893     0.05800
C2385       C  0.58672691  0.72106316  0.30675116     0.25500
C2386       C  0.60403218  0.75027603  0.30227721    -0.12200
C2387       C  0.62778725  0.76836800  0.31892516    -0.26200
C2388       C  0.63349212  0.75707073  0.34065731     0.36300
C2389       C  0.57615394  0.67947738  0.33334523     0.05900
F2390       F  0.56397139  0.70376067  0.29043944    -0.20000
H2391       H  0.59911368  0.75875755  0.28571779     0.15700
F2392       F  0.65537620  0.77419503  0.35808782    -0.23700
H2393       H  0.62103625  0.71976611  0.36192962     0.17500
C2394       C  0.58254666  0.66086961  0.31729445     0.25500
C2395       C  0.57226834  0.63402527  0.32697207    -0.12200
C2396       C  0.55575654  0.62561238  0.35292334    -0.26300
C2397       C  0.54777550  0.64360515  0.36782333     0.36400
C2398       C  0.55806483  0.67038911  0.35808882    -0.27900
F2399       F  0.60054280  0.66958487  0.29360924    -0.20000
H2400       H  0.57858336  0.62053211  0.31502170     0.15700
F2401       F  0.53119043  0.63600687  0.39252997    -0.23700
H2402       H  0.55326314  0.68474949  0.37078549     0.17500
C2403       C  0.81990392  0.91735823  0.35765265    -0.27800
C2404       C  0.81320886  0.90407671  0.32981954     0.05800
C2405       C  0.83499515  0.90686557  0.31015694     0.25500
C2406       C  0.86283312  0.92109788  0.31907989    -0.12200
C2407       C  0.86928920  0.93313599  0.34752990    -0.26200
C2408       C  0.84761327  0.93197974  0.36643009     0.36300
C2409       C  0.78313521  0.88617886  0.32255530     0.05900
F2410       F  0.82912917  0.89468343  0.28287547    -0.20000
H2411       H  0.87913498  0.92200318  0.30401659     0.15700
F2412       F  0.85276047  0.94391158  0.39386047    -0.23700
H2413       H  0.80340944  0.91582904  0.37287615     0.17500
C2414       C  0.76393587  0.86278209  0.33884416     0.25500
C2415       C  0.73495628  0.84795777  0.33479662    -0.12200
C2416       C  0.72455954  0.85629907  0.31459311    -0.26300
C2417       C  0.74386252  0.87890661  0.29735666     0.36400
C2418       C  0.77300147  0.89365881  0.30126890    -0.27900
F2419       F  0.77323598  0.85475750  0.35921278    -0.20000
H2420       H  0.72049002  0.83063348  0.34834141     0.15700
F2421       F  0.73448726  0.88688187  0.27704087    -0.23700
H2422       H  0.78756652  0.91160936  0.28848939     0.17500
C2423       C  0.61199107  0.93644988  0.35195749    -0.27800
C2424       C  0.59664788  0.90654776  0.34942718     0.05800
C2425       C  0.56706720  0.89100742  0.35416986     0.25500
C2426       C  0.55302413  0.90526278  0.35987286    -0.12200
C2427       C  0.56820735  0.93520203  0.36111232    -0.26200
C2428       C  0.59799598  0.95076321  0.35775860     0.36300
C2429       C  0.61153255  0.89173419  0.34109591     0.05900
F2430       F  0.55179498  0.86205358  0.35328386    -0.20000
H2431       H  0.53009269  0.89275350  0.36288989     0.15700
F2432       F  0.61361832  0.97973286  0.35926995    -0.23700
H2433       H  0.63489949  0.94877251  0.34859032     0.17500
C2434       C  0.60356235  0.87200384  0.31694744     0.25500
C2435       C  0.61734089  0.85765110  0.30952890    -0.12200
C2436       C  0.63940909  0.86290068  0.32586756    -0.26300
C2437       C  0.64778014  0.88307814  0.34970593     0.36400
C2438       C  0.63397326  0.89744579  0.35712661    -0.27900
F2439       F  0.58267928  0.86688454  0.30035387    -0.20000
H2440       H  0.61070158  0.84225883  0.29101029     0.15700
F2441       F  0.66837067  0.88792168  0.36657610    -0.23700
H2442       H  0.64034171  0.91258137  0.37584368     0.17500
C2443       C  0.89973783  0.63188641  0.23877587    -0.27800
C2444       C  0.89066127  0.60830725  0.21864923     0.05800
C2445       C  0.86781989  0.59958826  0.20161339     0.25500
C2446       C  0.85440212  0.61441296  0.20465791    -0.12200
C2447       C  0.86365862  0.63816463  0.22456975    -0.26200
C2448       C  0.88646116  0.64690364  0.24160898     0.36300
C2449       C  0.90568195  0.59348386  0.21482771     0.05900
F2450       F  0.85915359  0.57742478  0.18134560    -0.20000
H2451       H  0.83715157  0.60774978  0.19100796     0.15700
F2452       F  0.89559604  0.66965163  0.26117080    -0.23700
H2453       H  0.91714117  0.63865963  0.25224798     0.17500
C2454       C  0.93520990  0.60901373  0.21005224     0.25500
C2455       C  0.94928722  0.59485113  0.20573234    -0.12200
C2456       C  0.93415161  0.56500660  0.20582306    -0.26300
C2457       C  0.90455038  0.54942206  0.21071884     0.36400
C2458       C  0.89049273  0.56367291  0.21528851    -0.27900
F2459       F  0.95033982  0.63778631  0.20861683    -0.20000
H2460       H  0.97206509  0.60729861  0.20186800     0.15700
F2461       F  0.88916351  0.52054248  0.21111753    -0.23700
H2462       H  0.86771705  0.55144619  0.21920502     0.17500
C2463       C  0.90366694  0.77666895  0.23023404    -0.27800
C2464       C  0.90166900  0.78550029  0.20418604     0.05800
C2465       C  0.88295564  0.76522478  0.18367538     0.25500
C2466       C  0.86613331  0.73647384  0.18942173    -0.12200
C2467       C  0.86821069  0.72761041  0.21539627    -0.26200
C2468       C  0.88724885  0.74780630  0.23572471     0.36300
C2469       C  0.91750323  0.81600848  0.19911586     0.05900
F2470       F  0.88048892  0.77339415  0.15845297    -0.20000
H2471       H  0.85169179  0.72100587  0.17344869     0.15700
F2472       F  0.88952795  0.73959593  0.26100868    -0.23700
H2473       H  0.91792034  0.79219219  0.24629401     0.17500
C2474       C  0.91100154  0.83408347  0.21615693     0.25500
C2475       C  0.92261848  0.86186384  0.20858543    -0.12200
C2476       C  0.94073173  0.87189243  0.18383903    -0.26300
C2477       C  0.94884068  0.85440815  0.16799868     0.36400
C2478       C  0.93709039  0.82653458  0.17554967    -0.27900
F2479       F  0.89184663  0.82419708  0.23886582    -0.20000
H2480       H  0.91616863  0.87493488  0.22118891     0.15700
F2481       F  0.96742470  0.86389508  0.14480915    -0.23700
H2482       H  0.94250935  0.81283941  0.16249975     0.17500
C2483       C  0.73183065  0.59232538  0.20557439    -0.27800
C2484       C  0.71608627  0.60403945  0.21650102     0.05800
C2485       C  0.72951101  0.63068746  0.23220570     0.25500
C2486       C  0.75859964  0.64582663  0.23580998    -0.12200
C2487       C  0.77471624  0.63484726  0.22339319    -0.26200
C2488       C  0.76091377  0.60770967  0.20835582     0.36300
C2489       C  0.68667369  0.58997390  0.20823678     0.05900
F2490       F  0.71489250  0.64283606  0.24249746    -0.20000
H2491       H  0.76866306  0.66651221  0.24771259     0.15700
F2492       F  0.77558560  0.59672707  0.19460429    -0.23700
H2493       H  0.72173138  0.57171625  0.19348035     0.17500
C2494       C  0.68047331  0.58227216  0.17899229     0.25500
C2495       C  0.65314856  0.57045016  0.17065448    -0.12200
C2496       C  0.63158433  0.56656196  0.19112156    -0.26300
C2497       C  0.63749120  0.57361059  0.22050464     0.36400
C2498       C  0.66496674  0.58522154  0.22896557    -0.27900
F2499       F  0.70112517  0.58747756  0.15824739    -0.20000
H2500       H  0.64917037  0.56534031  0.14782461     0.15700
F2501       F  0.61690555  0.56947209  0.24090745    -0.23700
H2502       H  0.66940293  0.59078092  0.25167767     0.17500
C2503       C  0.86979421  0.60257166  0.45103736    -0.27800
C2504       C  0.89109104  0.60944412  0.46953615     0.05800
C2505       C  0.89732961  0.63028018  0.49250650     0.25500
C2506       C  0.88217767  0.64351946  0.49697629    -0.12200
C2507       C  0.86044298  0.63604484  0.47887607    -0.26200
C2508       C  0.85452428  0.61562193  0.45565793     0.36300
C2509       C  0.90645024  0.59464480  0.46473354     0.05900
F2510       F  0.91427745  0.63342313  0.99979108    -0.20000
H2511       H  0.88707616  0.65862055  0.00257005     0.15700
F2512       F  0.83459691  0.60897242  0.43690600    -0.23700
H2513       H  0.86513347  0.58718012  0.43271259     0.17500
C2514       C  0.89151312  0.56473095  0.46013831     0.25500
C2515       C  0.90606823  0.55093158  0.45507569    -0.12200
C2516       C  0.93578034  0.56657954  0.45451543    -0.26300
C2517       C  0.95075323  0.59652281  0.45936643     0.36400
C2518       C  0.93615980  0.61032824  0.46433159    -0.27900
F2519       F  0.86277223  0.54874656  0.46108905    -0.20000
H2520       H  0.89397526  0.52787165  0.45161261     0.15700
F2521       F  0.97945979  0.61255407  0.45935339    -0.23700
H2522       H  0.94815511  0.63341387  0.46750243     0.17500
C2523       C  0.90645240  0.83221664  0.47348879    -0.27800
C2524       C  0.91043563  0.81225745  0.45672864     0.05800
C2525       C  0.92816927  0.82048500  0.43158906     0.25500
C2526       C  0.94077799  0.84803970  0.42273385    -0.12200
C2527       C  0.93580701  0.86775991  0.43874136    -0.26200
C2528       C  0.91895434  0.85978186  0.46461273     0.36300
C2529       C  0.89397322  0.78223323  0.46399128     0.05900
F2530       F  0.93280788  0.80164971  0.41536435    -0.20000
H2531       H  0.95388374  0.85370076  0.40288606     0.15700
F2532       F  0.91344516  0.87805816  0.48067136    -0.23700
H2533       H  0.88268197  0.82149535  0.98613424     0.17500
C2534       C  0.89726868  0.77428915  0.49003804     0.25500
C2535       C  0.87235065  0.74766908  0.99867513    -0.12200
C2536       C  0.86173660  0.72468789  0.47685424    -0.26300
C2537       C  0.85814898  0.73276397  0.45106233     0.36400
C2538       C  0.87430527  0.76132363  0.44465044    -0.27900
F2539       F  0.89094551  0.79465207  0.02010317    -0.20000
H2540       H  0.86055652  0.73914838  0.01870591     0.15700
F2541       F  0.83957673  0.71289379  0.43173339    -0.23700
H2542       H  0.87142085  0.76721002  0.42459837     0.17500
C2543       C  0.65987891  0.57961957  0.48782131    -0.27800
C2544       C  0.68085567  0.57975226  0.46882273     0.05800
C2545       C  0.67339237  0.56476479  0.44170954     0.25500
C2546       C  0.64611422  0.55232948  0.43260507    -0.12200
C2547       C  0.62574961  0.55464132  0.45030252    -0.26200
C2548       C  0.63234409  0.56705169  0.47868143     0.36300
C2549       C  0.71107251  0.59852152  0.47518957     0.05900
F2550       F  0.69307005  0.56372751  0.42329986    -0.20000
H2551       H  0.64147290  0.54226364  0.41093498     0.15700
F2552       F  0.61278906  0.56840166  0.49698959    -0.23700
H2553       H  0.66526807  0.59078115  0.50899571     0.17500
C2554       C  0.72950619  0.62007328  0.45658823     0.25500
C2555       C  0.75846641  0.63654040  0.46059274    -0.12200
C2556       C  0.76965948  0.63199895  0.48329306    -0.26300
C2557       C  0.75469388  0.61790145  0.99694023     0.36400
C2558       C  0.72193398  0.59460792  0.49868067    -0.27900
F2559       F  0.71943013  0.62497554  0.43427960    -0.20000
H2560       H  0.77231931  0.65248116  0.44545683     0.15700
F2561       F  0.76538492  0.60965404  0.01556387    -0.23700
H2562       H  0.71163299  0.58445744  0.00718277     0.17500
C2563       C  0.84503496  0.65065494  0.48323562     0.03600
C2564       C  0.86018330  0.68044209  0.48270308    -0.12600
C2565       C  0.84583363  0.69430506  0.48263017     0.01100
C2566       C  0.81619979  0.67845483  0.48431374    -0.11100
C2567       C  0.80072256  0.64871627  0.48561142     0.03600
C2568       C  0.81526393  0.63488238  0.48509865    -0.10500
H2569       H  0.88309625  0.69261092  0.48026828     0.09200
H2570       H  0.80517578  0.68921244  0.48360737     0.06700
H2571       H  0.80347500  0.61179984  0.48479171     0.06500
C2572       C  0.84799841  0.64710052  0.73076553     0.03600
C2573       C  0.81839030  0.63120534  0.73321606    -0.12600
C2574       C  0.80333447  0.64378436  0.72975994     0.01100
C2575       C  0.81843639  0.67313585  0.72576173    -0.11100
C2576       C  0.84806740  0.68951819  0.72508880     0.03600
C2577       C  0.86284142  0.67646843  0.72750656    -0.10500
H2578       H  0.80716234  0.60867122  0.73671264     0.09200
H2579       H  0.80731192  0.68318408  0.72216357     0.06700
H2580       H  0.88574352  0.68880024  0.72501004     0.06500
C2581       C  0.64967798  0.84389804  0.81890514     0.03600
C2582       C  0.63447077  0.81395498  0.81498054    -0.12600
C2583       C  0.64874343  0.79972757  0.80842522     0.01100
C2584       C  0.67846224  0.81612038  0.80421703    -0.11100
C2585       C  0.69383343  0.84589438  0.80912148     0.03600
C2586       C  0.67933648  0.85964368  0.81620724    -0.10500
H2587       H  0.61170078  0.80180397  0.81877630     0.09200
H2588       H  0.68991084  0.80568499  0.79880390     0.06700
H2589       H  0.69127086  0.88267886  0.82001465     0.06500
C2590       C  0.65487174  0.84512676  0.55712928     0.03600
C2591       C  0.68451292  0.86054481  0.55844830    -0.12600
C2592       C  0.69836497  0.84630173  0.55992985     0.01100
C2593       C  0.68241424  0.81643545  0.56014365    -0.11100
C2594       C  0.65284448  0.80067893  0.55890594     0.03600
C2595       C  0.63951937  0.81512833  0.55573457    -0.10500
H2596       H  0.69667134  0.88364916  0.56037200     0.09200
H2597       H  0.69302242  0.80563870  0.56284934     0.06700
H2598       H  0.61685541  0.80294349  0.55336167     0.06500
N2599       N  0.56060740  0.54715796  0.93076480    -0.05700
N2600       N  0.57906100  0.55833531  0.95126042    -0.57800
N2601       N  0.54649013  0.55967727  0.86867013    -0.05400
N2602       N  0.55675869  0.57802759  0.84841921    -0.59900
N2603       N  0.53643221  0.56840219  0.89112303    -0.05000
N2604       N  0.53955447  0.59279543  0.88657006    -0.57800
N2605       N  0.56968360  0.53744475  0.90826527    -0.04600
N2606       N  0.59435181  0.54166331  0.91303939    -0.60300
C2607       C  0.59994876  0.55459701  0.93997090     0.96500
C2608       C  0.55210705  0.59847956  0.85974512     0.96300
N2609       N  0.99587044  0.97598552  0.82462526    -0.05900
N2610       N  0.98594072  0.96948458  0.79864029    -0.58400
N2611       N  0.54002123  0.97845731  0.87443411    -0.04000
N2612       N  0.56139775  0.97497531  0.87306529    -0.59600
N2613       N  0.51581917  0.95355537  0.87382903    -0.05900
N2614       N  0.52022829  0.93266427  0.87215110    -0.58600
N2615       N  0.52101747  0.50223089  0.82985997    -0.03600
N2616       N  0.52693036  0.51313525  0.80455423    -0.59700
Mn2617     Mn  0.54633649  0.52019627  0.86832326     1.18400
C2618       C  0.00593613  0.99186610  0.78369472     0.98600
C2619       C  0.54875266  0.94628562  0.87183835     0.99200
N2620       N  0.97934672  0.54084129  0.93582840    -0.05900
N2621       N  0.97459674  0.56153945  0.93864098    -0.62200
N2622       N  0.97286011  0.99459306  0.96220126    -0.04700
N2623       N  0.96553713  0.98416028  0.98781215    -0.62900
N2624       N  0.50380465  0.51993097  0.96841743    -0.05400
N2625       N  0.51495504  0.52735252  0.99382978    -0.62500
N2626       N  0.95520330  0.51582056  0.93574676    -0.04300
N2627       N  0.93362366  0.51902948  0.93844204    -0.63200
Mn2628     Mn  0.52029258  0.54486052  0.93045585     1.10700
C2629       C  0.94600270  0.54765829  0.94008899     0.99800
C2630       C  0.99796192  0.00072645  0.50393258     0.99900
N2631       N  0.95983471  0.92823022  0.90192763    -0.05400
N2632       N  0.95823843  0.90486698  0.90726958    -0.60800
N2633       N  0.92762295  0.95877602  0.88258769    -0.04700
N2634       N  0.90324800  0.95490616  0.87750207    -0.57500
N2635       N  0.93687846  0.94897003  0.86036330    -0.06100
N2636       N  0.91849854  0.93770285  0.83970931    -0.60400
N2637       N  0.94944234  0.93692702  0.92405868    -0.05000
N2638       N  0.94012248  0.91929412  0.94491748    -0.57600
Mn2639     Mn  0.97701981  0.95099763  0.86264185     1.20200
Mn2640     Mn  0.94951135  0.97611741  0.92285718     1.10100
Cl2641     Cl  0.99641756  0.99758036  0.89382955    -0.85500
C2642       C  0.94597596  0.89954623  0.93410634     0.96800
C2643       C  0.89779829  0.94193779  0.85070321     0.96600
N2644       N  0.56204766  0.54063862  0.67760797    -0.05700
N2645       N  0.58156332  0.54965773  0.69651622    -0.57800
N2646       N  0.54461694  0.55775714  0.62058193    -0.05400
N2647       N  0.55517447  0.57801189  0.60240002    -0.59900
N2648       N  0.53700235  0.56575564  0.64544809    -0.05000
N2649       N  0.54235889  0.59171020  0.64476134    -0.57800
N2650       N  0.56970198  0.53275355  0.65270304    -0.04600
N2651       N  0.59450549  0.53619072  0.65403020    -0.60300
C2652       C  0.60159585  0.54659064  0.68146238     0.96500
C2653       C  0.55345534  0.59899229  0.61768344     0.96300
N2654       N  0.99456768  0.98021626  0.57313742    -0.05900
N2655       N  0.98271266  0.97456316  0.54830141    -0.58400
N2656       N  0.54298495  0.97763484  0.61085762    -0.04000
N2657       N  0.56466463  0.97476349  0.60521473    -0.59600
N2658       N  0.51896029  0.95256140  0.60993893    -0.05900
N2659       N  0.52382453  0.93207000  0.60335318    -0.58600
N2660       N  0.51690237  0.50261126  0.57861374    -0.03600
N2661       N  0.52219422  0.51463301  0.55414942    -0.59700
Mn2662     Mn  0.54420008  0.51824623  0.61503183     1.18400
C2663       C  0.00121894  0.99776312  0.53359962     0.98600
C2664       C  0.55244079  0.94625578  0.60068383     0.99200
N2665       N  0.98192092  0.53692580  0.69480174    -0.05900
N2666       N  0.97749659  0.55780462  0.69836712    -0.62200
N2667       N  0.98633944  0.98789462  0.71382621    -0.04700
N2668       N  0.98097456  0.97580929  0.73828729    -0.62900
N2669       N  0.50794822  0.51253364  0.71912542    -0.05400
N2670       N  0.51978055  0.51871573  0.74408000    -0.62500
N2671       N  0.95774485  0.51200693  0.69474153    -0.04300
N2672       N  0.93630495  0.51541231  0.69825976    -0.63200
Mn2673     Mn  0.52259937  0.53955030  0.68269011     1.10700
C2674       C  0.94896858  0.54409883  0.70044856     0.99800
C2675       C  0.00352369  0.99496999  0.75384347     0.99900
N2676       N  0.96673131  0.92590204  0.64583297    -0.05400
N2677       N  0.96232465  0.90030377  0.64626411    -0.60800
N2678       N  0.93274754  0.95837239  0.64016079    -0.05900
N2679       N  0.90775977  0.95476316  0.63931534    -0.57500
N2680       N  0.94027059  0.95082356  0.61496208    -0.06100
N2681       N  0.92043914  0.94188500  0.59638113    -0.60400
N2682       N  0.95882645  0.93336266  0.67086802    -0.05000
N2683       N  0.94880690  0.91299384  0.68879604    -0.57600
Mn2684     Mn  0.98025469  0.95234581  0.60882416     1.20200
Mn2685     Mn  0.95890299  0.97268874  0.67747943     1.10100
Cl2686     Cl  0.00259762  0.99653889  0.64372037    -0.85500
C2687       C  0.95131894  0.89258582  0.67327047     0.96800
C2688       C  0.90033035  0.94461155  0.61186976     0.96600
C2689       C  0.58509564  0.66015360  0.56897831    -0.27800
C2690       C  0.59272137  0.68340399  0.58922238     0.05800
C2691       C  0.58653558  0.67848650  0.61875682     0.25500
C2692       C  0.57300886  0.65085180  0.62771289    -0.12200
C2693       C  0.56580839  0.62766997  0.60752638    -0.26200
C2694       C  0.57188985  0.63251917  0.57798156     0.36300
C2695       C  0.60706472  0.71270314  0.57959202     0.05900
F2696       F  0.59445176  0.70051210  0.63905916    -0.20000
H2697       H  0.56889801  0.64772286  0.65062433     0.15700
F2698       F  0.56491238  0.61059404  0.55777917    -0.23700
H2699       H  0.58928342  0.66339909  0.54608958     0.17500
C2700       C  0.63106736  0.72369541  0.56043919     0.25500
C2701       C  0.64516081  0.75190981  0.55280033    -0.12200
C2702       C  0.63586147  0.76981536  0.56437720    -0.26300
C2703       C  0.61157342  0.75853864  0.58330206     0.36400
C2704       C  0.59723606  0.73024087  0.59043230    -0.27900
F2705       F  0.64166235  0.70760907  0.55013954    -0.20000
H2706       H  0.66376242  0.75995191  0.53823861     0.15700
F2707       F  0.60249489  0.77517266  0.59635041    -0.23700
H2708       H  0.57866057  0.72215692  0.60505241     0.17500
C2709       C  0.83764562  0.91270410  0.56446062    -0.27800
C2710       C  0.81686784  0.91148625  0.58462636     0.05800
C2711       C  0.82448671  0.92360726  0.61283152     0.25500
C2712       C  0.85197948  0.93531101  0.62106657    -0.12200
C2713       C  0.87243581  0.93510185  0.60143879    -0.26200
C2714       C  0.86525621  0.92437206  0.57274781     0.36300
C2715       C  0.78676574  0.89496437  0.57734398     0.05900
F2716       F  0.80508593  0.92343997  0.63268090    -0.20000
H2717       H  0.85695399  0.94372262  0.64319399     0.15700
F2718       F  0.88453340  0.92426096  0.55295652    -0.23700
H2719       H  0.83214925  0.90338324  0.54265091     0.17500
C2720       C  0.77774216  0.90002096  0.55303625     0.25500
C2721       C  0.74890986  0.88411610  0.54724792    -0.12200
C2722       C  0.72892193  0.86272983  0.56533209    -0.26300
C2723       C  0.73814626  0.85755123  0.58934434     0.36400
C2724       C  0.76672976  0.87346643  0.59517047    -0.27900
F2725       F  0.79663391  0.92068271  0.53537787    -0.20000
H2726       H  0.74215768  0.88840578  0.52867030     0.15700
F2727       F  0.71938933  0.83764029  0.60775073    -0.23700
H2728       H  0.77327834  0.86896462  0.61375673     0.17500
C2729       C  0.60073853  0.86428361  0.58157473    -0.27800
C2730       C  0.61225810  0.89016625  0.56901851     0.05800
C2731       C  0.63774458  0.90129689  0.55224650     0.25500
C2732       C  0.65114068  0.88624098  0.54768356    -0.12200
C2733       C  0.63971247  0.86024862  0.56042146    -0.26200
C2734       C  0.61443178  0.84967393  0.57781804     0.36300
C2735       C  0.59786161  0.90568895  0.57483400     0.05900
F2736       F  0.64952715  0.92657349  0.54018459    -0.20000
H2737       H  0.67052110  0.89499458  0.53428204     0.15700
F2738       F  0.60358093  0.82603835  0.59258405    -0.23700
H2739       H  0.58149407  0.85584045  0.59519741     0.17500
C2740       C  0.56963475  0.89264477  0.56754398     0.25500
C2741       C  0.55497577  0.90595831  0.57608071    -0.12200
C2742       C  0.56829892  0.93256676  0.59179386    -0.26300
C2743       C  0.59680967  0.94595042  0.59849326     0.36400
C2744       C  0.61141124  0.93251417  0.59007157    -0.27900
F2745       F  0.55628420  0.86699224  0.55220323    -0.20000
H2746       H  0.53318980  0.89548341  0.57029013     0.15700
F2747       F  0.61023323  0.97144199  0.61411570    -0.23700
H2748       H  0.63304354  0.94262234  0.59622584     0.17500
C2749       C  0.62924401  0.72640311  0.82590538    -0.27800
C2750       C  0.60186015  0.70865174  0.81595371     0.05800
C2751       C  0.59007416  0.72060314  0.80231670     0.25500
C2752       C  0.60573155  0.75006410  0.79881403    -0.12200
C2753       C  0.63307909  0.76808270  0.80945586    -0.26200
C2754       C  0.64454978  0.75573949  0.82318229     0.36300
C2755       C  0.58545525  0.67832005  0.82260799     0.05900
F2756       F  0.56347203  0.70387504  0.79264333    -0.20000
H2757       H  0.59629715  0.75884933  0.78817238     0.15700
F2758       F  0.66977603  0.77209746  0.83584210    -0.23700
H2759       H  0.63832542  0.71761325  0.83715477     0.17500
C2760       C  0.59553909  0.66075218  0.81264668     0.25500
C2761       C  0.58368322  0.63421170  0.82389655    -0.12200
C2762       C  0.56193735  0.62496814  0.84564168    -0.26300
C2763       C  0.55095745  0.64201165  0.85460734     0.36400
C2764       C  0.56254462  0.66837636  0.84296899    -0.27900
F2765       F  0.61767568  0.66986263  0.79293231    -0.20000
H2766       H  0.59246203  0.62147645  0.81652476     0.15700
F2767       F  0.52956384  0.63359924  0.87512798    -0.23700
H2768       H  0.55471950  0.68180872  0.85110482     0.17500
C2769       C  0.82921487  0.93340081  0.83585370    -0.27800
C2770       C  0.81469352  0.90618420  0.82136244     0.05800
C2771       C  0.82934988  0.89255169  0.81295683     0.25500
C2772       C  0.85735877  0.90521220  0.82071112    -0.12200
C2773       C  0.87091825  0.93136438  0.83723429    -0.26200
C2774       C  0.85687766  0.94575029  0.84400767     0.36300
C2775       C  0.78381175  0.89141312  0.81746244     0.05900
F2776       F  0.81602232  0.86614795  0.79911272    -0.20000
H2777       H  0.86774516  0.89372719  0.81543257     0.15700
F2778       F  0.86960905  0.97143949  0.85933274    -0.23700
H2779       H  0.81871896  0.94470204  0.84183939     0.17500
C2780       C  0.76562395  0.89071001  0.84085610     0.25500
C2781       C  0.73657446  0.87644976  0.83755715    -0.12200
C2782       C  0.72490234  0.86220140  0.81112759    -0.26300
C2783       C  0.74283893  0.86272330  0.78769607     0.36400
C2784       C  0.77211832  0.87741689  0.79082133    -0.27900
F2785       F  0.77575000  0.90286798  0.86729381    -0.20000
H2786       H  0.72295639  0.87583760  0.85599532     0.15700
F2787       F  0.73205920  0.84931666  0.76181137    -0.23700
H2788       H  0.78567441  0.87790041  0.77241756     0.17500
C2789       C  0.60740718  0.93222339  0.85566931    -0.27800
C2790       C  0.59179286  0.90232624  0.85160953     0.05800
C2791       C  0.56219087  0.88699753  0.85606888     0.25500
C2792       C  0.54848873  0.90146049  0.86347029    -0.12200
C2793       C  0.56397314  0.93143991  0.86661731    -0.26200
C2794       C  0.59372619  0.94673977  0.86307748     0.36300
C2795       C  0.60652921  0.88730411  0.84302718     0.05900
F2796       F  0.54655913  0.85802301  0.85358751    -0.20000
H2797       H  0.52555158  0.88907259  0.86637232     0.15700
F2798       F  0.60962084  0.97568599  0.86618548    -0.23700
H2799       H  0.63033129  0.94443177  0.85251906     0.17500
C2800       C  0.59851091  0.86749928  0.81888473     0.25500
C2801       C  0.61240377  0.85321049  0.81133961    -0.12200
C2802       C  0.63473437  0.85871880  0.82743895    -0.26300
C2803       C  0.64287932  0.87869655  0.85144893     0.36400
C2804       C  0.62890326  0.89285661  0.85906312    -0.27900
F2805       F  0.57778666  0.86256161  0.80216069    -0.20000
H2806       H  0.60606760  0.83816377  0.79254764     0.15700
F2807       F  0.66386720  0.88399084  0.86798922    -0.23700
H2808       H  0.63529601  0.90793908  0.87782056     0.17500
C2809       C  0.90000537  0.62643084  0.73999022    -0.27800
C2810       C  0.89125908  0.60340560  0.71913934     0.05800
C2811       C  0.86829589  0.59497294  0.70237500     0.25500
C2812       C  0.85421099  0.60915519  0.70666958    -0.12200
C2813       C  0.86292630  0.63213765  0.72748438    -0.26200
C2814       C  0.88608422  0.64089313  0.74400948     0.36300
C2815       C  0.90609662  0.58825877  0.71482723     0.05900
F2816       F  0.85997030  0.57355573  0.68128451    -0.20000
H2817       H  0.83677979  0.60255138  0.69331122     0.15700
F2818       F  0.89483589  0.66299433  0.76433338    -0.23700
H2819       H  0.91745139  0.63303560  0.75331955     0.17500
C2820       C  0.93574971  0.60346487  0.71129962     0.25500
C2821       C  0.94944195  0.58885850  0.70665150    -0.12200
C2822       C  0.93385904  0.55889384  0.70528225    -0.26300
C2823       C  0.90415341  0.54365368  0.70878309     0.36400
C2824       C  0.89048954  0.55830654  0.71369438    -0.27900
F2825       F  0.95145329  0.63239286  0.71154166    -0.20000
H2826       H  0.97232160  0.60109307  0.70390060     0.15700
F2827       F  0.88824713  0.51468671  0.70752821    -0.23700
H2828       H  0.86762922  0.54621968  0.71671171     0.17500
C2829       C  0.89626632  0.76976741  0.73261830    -0.27800
C2830       C  0.89458044  0.77699741  0.70543561     0.05800
C2831       C  0.87716861  0.75537386  0.68499873     0.25500
C2832       C  0.86163975  0.72690429  0.69178465    -0.12200
C2833       C  0.86366768  0.71967535  0.71878152    -0.26200
C2834       C  0.88107233  0.74121269  0.73921830     0.36300
C2835       C  0.91071358  0.80711438  0.69853289     0.05900
F2836       F  0.87489333  0.76187213  0.65870095    -0.20000
H2837       H  0.84827230  0.71037139  0.67582249     0.15700
F2838       F  0.88306647  0.73457664  0.76555564    -0.23700
H2839       H  0.90961271  0.78628260  0.74859053     0.17500
C2840       C  0.90579269  0.82669759  0.71480095     0.25500
C2841       C  0.91997763  0.85482681  0.70709894    -0.12200
C2842       C  0.93914801  0.86377938  0.68297555    -0.26300
C2843       C  0.94474589  0.84432863  0.66728748     0.36400
C2844       C  0.93051641  0.81617721  0.67502432    -0.27900
F2845       F  0.88630285  0.81826178  0.73728803    -0.20000
H2846       H  0.91517494  0.86929996  0.71942606     0.15700
F2847       F  0.96370674  0.85235634  0.64435469    -0.23700
H2848       H  0.93471920  0.80133189  0.66252683     0.17500
C2849       C  0.73000017  0.58371971  0.70818631    -0.27800
C2850       C  0.71393469  0.59532647  0.71817142     0.05800
C2851       C  0.72684161  0.62183227  0.73416224     0.25500
C2852       C  0.75564063  0.63679794  0.73916055    -0.12200
C2853       C  0.77217514  0.62599625  0.72765221    -0.26200
C2854       C  0.75890632  0.59902967  0.71226954     0.36300
C2855       C  0.68454282  0.58090536  0.70951257     0.05900
F2856       F  0.71207778  0.63405968  0.74343033    -0.20000
H2857       H  0.76522092  0.65735016  0.75129283     0.15700
F2858       F  0.77397631  0.58817469  0.69936506    -0.23700
H2859       H  0.72032573  0.56316497  0.69601451     0.17500
C2860       C  0.67826470  0.57192077  0.68039826     0.25500
C2861       C  0.65090759  0.55975969  0.67185941    -0.12200
C2862       C  0.62939698  0.55674193  0.69196330    -0.26300
C2863       C  0.63538461  0.56503444  0.72122215     0.36400
C2864       C  0.66283262  0.57696046  0.72988549    -0.27900
F2865       F  0.69882189  0.57612508  0.65990592    -0.20000
H2866       H  0.64685196  0.55364803  0.64912388     0.15700
F2867       F  0.61490633  0.56183934  0.74133965    -0.23700
H2868       H  0.66723028  0.58337476  0.75252713     0.17500
C2869       C  0.86196821  0.59585427  0.94397686    -0.27800
C2870       C  0.88444473  0.60338801  0.96107660     0.05800
C2871       C  0.89312010  0.62602148  0.98238884     0.25500
C2872       C  0.87994786  0.64115304  0.98604470    -0.12200
C2873       C  0.85782737  0.63400372  0.96868158    -0.26200
C2874       C  0.84871848  0.61103028  0.94767703     0.36300
C2875       C  0.89984616  0.58875464  0.95569246     0.05900
F2876       F  0.91753679  0.63732133  0.51104881    -0.20000
H2877       H  0.88719260  0.65946233  0.51483645     0.15700
F2878       F  0.82795541  0.60411224  0.92992840    -0.23700
H2879       H  0.85525555  0.57873895  0.92711068     0.17500
C2880       C  0.88541349  0.55883022  0.95431682     0.25500
C2881       C  0.90052309  0.54557215  0.94901036    -0.12200
C2882       C  0.93022862  0.56191006  0.94517794    -0.26300
C2883       C  0.94458364  0.59186523  0.94685953     0.36400
C2884       C  0.92946315  0.60502492  0.95183325    -0.27900
F2885       F  0.85684785  0.54249627  0.95884666    -0.20000
H2886       H  0.88894609  0.52247472  0.94817446     0.15700
F2887       F  0.97323748  0.60857597  0.94376823    -0.23700
H2888       H  0.94098088  0.62812643  0.95253688     0.17500
C2889       C  0.90307076  0.83277347  0.97443972    -0.27800
C2890       C  0.91787768  0.81937068  0.96606764     0.05800
C2891       C  0.94393036  0.83438760  0.95024602     0.25500
C2892       C  0.95367113  0.86126749  0.94117651    -0.12200
C2893       C  0.93797244  0.87383835  0.94817243    -0.26200
C2894       C  0.91310511  0.85989218  0.96579874     0.36300
C2895       C  0.90406761  0.78865536  0.97046413     0.05900
F2896       F  0.95944123  0.82267640  0.94265084    -0.20000
H2897       H  0.97312950  0.87192797  0.92783736     0.15700
F2898       F  0.89720987  0.87126968  0.97255236    -0.23700
H2899       H  0.89262679  0.82602825  0.49286018     0.17500
C2900       C  0.88929240  0.77724025  0.99664945     0.25500
C2901       C  0.88142138  0.74554649  0.49625059    -0.12200
C2902       C  0.87048626  0.72918852  0.97489341    -0.26300
C2903       C  0.88635465  0.74052923  0.94925669     0.36400
C2904       C  0.90277466  0.76998179  0.94701440    -0.27900
F2905       F  0.91619427  0.79421096  0.50904703    -0.20000
H2906       H  0.88443767  0.73952053  0.51613143     0.15700
F2907       F  0.88478346  0.72304621  0.92589483    -0.23700
H2908       H  0.91338125  0.77807937  0.92643606     0.17500
C2909       C  0.66564691  0.60333564  0.98263955    -0.27800
C2910       C  0.68308269  0.59372033  0.97103635     0.05800
C2911       C  0.67195226  0.56924987  0.95196261     0.25500
C2912       C  0.64430259  0.55576423  0.94308437    -0.12200
C2913       C  0.62719702  0.56622391  0.95338522    -0.26200
C2914       C  0.63773056  0.58949834  0.97422174     0.36300
C2915       C  0.71368086  0.61109040  0.97585036     0.05900
F2916       F  0.68841351  0.55946815  0.94060122    -0.20000
H2917       H  0.63659175  0.53768847  0.92730465     0.15700
F2918       F  0.62183397  0.60008823  0.98501885    -0.23700
H2919       H  0.67404557  0.62223807  0.99738866     0.17500
C2920       C  0.73164749  0.63503726  0.95987309     0.25500
C2921       C  0.76096636  0.64995345  0.96195216    -0.12200
C2922       C  0.77284899  0.64121749  0.98000092    -0.26300
C2923       C  0.75116284  0.61117623  0.50266843     0.36400
C2924       C  0.72530598  0.60282567  0.99465494    -0.27900
F2925       F  0.72083306  0.64315627  0.94124917    -0.20000
H2926       H  0.77445173  0.66763505  0.94851497     0.15700
F2927       F  0.76135115  0.60701217  0.52538843    -0.23700
H2928       H  0.70790898  0.57829130  0.51338487     0.17500
loop_ 
_geom_bond_atom_site_label_1 
_geom_bond_atom_site_label_2 
_geom_bond_distance 
_geom_bond_site_symmetry_2 
_ccdc_geom_bond_type 
C1            C2   1.405       .  A
C1            C6   1.406       .  A
C1          C677   1.483       .  S
C2            C3   1.400       .  A
C2            H7   1.083       .  S
C3            C4   1.398       .  A
C3          C706   1.474       .  S
C4            C5   1.404       .  A
C4            H8   1.084       .  S
C5            C6   1.408       .  A
C5          C726   1.483       .  S
C6            H9   1.083       .  S
C10          C11   1.400       .  A
C10          C15   1.404       .  A
C10         C251   1.478       .  S
C11          C12   1.400       .  A
C11          H16   1.084       .  S
C12          C13   1.405       .  A
C12         C291   1.481       .  S
C13          C14   1.402       .  A
C13          H17   1.084       .  S
C14          C15   1.403       .  A
C14         C271   1.476       .  S
C15          H18   1.083       .  S
C19          C20   1.407       .  A
C19          C24   1.406       .  A
C19         C240   1.484       .  S
C20          C21   1.406       .  A
C20          H25   1.083       .  S
C21          C22   1.406       .  A
C21         C191   1.483       .  S
C22          C23   1.401       .  A
C22          H26   1.085       .  S
C23          C24   1.403       .  A
C23         C220   1.479       .  S
C24          H27   1.084       .  S
C28          C29   1.404       .  A
C28          C33   1.405       .  A
C28         C171   1.485       .  S
C29          C30   1.402       .  A
C29          H34   1.083       .  S
C30          C31   1.402       .  A
C30         C160   1.476       .  S
C31          C32   1.403       .  A
C31          H35   1.084       .  S
C32          C33   1.403       .  A
C32         C140   1.489       .  S
C33          H36   1.083       .  S
N37          N38   1.321       .  A
N37          N43   1.314       .  A
N37         Mn66   2.196       .  S
N38          C45   1.353       .  A
N39          N41   1.315       .  A
N39          N40   1.321       .  A
N39         Mn55   2.201       .  S
N40          C46   1.354       .  A
N41          N42   1.320       .  A
N41         Mn66   2.203       .  S
N42          C46   1.354       .  A
N43          N44   1.319       .  A
N43         Mn55   2.204       .  S
N44          C45   1.354       .  A
C45         C351   1.480       .  S
C46         C200   1.482       .  S
N47          N48   1.317       .  A
N47        N2249   1.316       .  A
N47         Mn77   2.192       .  S
N48          C56   1.350       .  A
N49          N50   1.320       .  A
N49          N51   1.315       .  A
N49        Mn787   2.200       .  S
N50          C57   1.354       .  A
N51          N52   1.321       .  A
N51       Mn1541   2.211   1_455  S
N52          C57   1.356       .  A
N53          N54   1.320       .  A
N53        N2243   1.316   1_445  A
N53         Mn55   2.200       .  S
N54        C2252   1.352   1_545  A
Mn55        N781   2.196   1_545  S
Mn55      Cl2275   2.543   1_445  S
C56         C113   1.451       .  S
C56        N2250   1.349       .  A
C57         C231   1.485       .  S
N58          N59   1.318       .  A
N58          N64   1.315       .  A
N58       Mn1530   2.190       .  S
N59          C67   1.351       .  A
N60          N61   1.319       .  A
N60        N2258   1.315       .  A
N60         Mn78   2.193       .  S
N61         C434   1.350       .  A
N62          N63   1.319       .  A
N62        N2256   1.316   1_445  A
N62         Mn66   2.194       .  S
N63        C2630   1.350   1_455  A
N64          N65   1.319       .  A
N64        Mn810   2.198   1_545  S
N65          C67   1.354       .  A
Mn66       N1522   2.195   1_455  S
Mn66      Cl2275   2.548   1_445  S
C67         C320   1.475       .  S
C68         C101   1.447       .  S
C68         N427   1.350   1_554  A
C68        N2625   1.347   1_554  A
N69          N70   1.318       .  A
N69          N75   1.315       .  A
N69         Mn77   2.185       .  S
N70          C80   1.352       .  A
N71          N72   1.319       .  A
N71          N73   1.316       .  A
N71         Mn78   2.200       .  S
N72          C81   1.352       .  A
N73          N74   1.322       .  A
N73         Mn77   2.207       .  S
N74          C81   1.353       .  A
N75          N76   1.319       .  A
N75         Mn78   2.200       .  S
N76          C80   1.353       .  A
Mn77       N1515   2.201       .  S
Mn77        Cl79   2.544       .  S
Mn78        N796   2.202       .  S
Mn78        Cl79   2.540       .  S
Cl79      Mn2251   2.545       .  S
Cl79      Mn2262   2.544       .  S
C80         C331   1.472       .  S
C81         C211   1.474       .  S
N82          N83   1.318       .  A
N82          N88   1.314       .  A
N82        Mn111   2.188       .  S
N83          C90   1.352       .  A
N84          N86   1.315       .  A
N84          N85   1.317       .  A
N84        Mn100   2.185       .  S
N85          C91   1.350       .  A
N86          N87   1.321       .  A
N86        Mn111   2.206       .  S
N87          C91   1.355       .  A
N88          N89   1.316       .  A
N88        Mn100   2.180       .  S
N89          C90   1.351       .  A
C90         C300   1.467       .  S
C91         C131   1.476       .  S
N92          N93   1.316       .  A
N92        N2294   1.315       .  A
N92        Mn122   2.179       .  S
N93         C101   1.347       .  A
N94          N95   1.319       .  A
N94          N96   1.315       .  A
N94        Mn832   2.193       .  S
N95         C102   1.352       .  A
N96          N97   1.318       .  A
N96       Mn1586   2.192   1_455  S
N97         C102   1.353       .  A
N98          N99   1.316       .  A
N98        N2288   1.315   1_445  A
N98        Mn100   2.180       .  S
N99        C2297   1.348   1_455  A
Mn100       N826   2.183   1_545  S
Mn100     Cl2320   2.529   1_455  S
C101       N2295   1.350       .  A
C102        C180   1.471       .  S
N103        N104   1.318       .  A
N103        N109   1.316       .  A
N103      Mn1575   2.196       .  S
N104        C112   1.353       .  A
N105        N106   1.316       .  A
N105       N2303   1.315       .  A
N105       Mn123   2.178       .  S
N106        C113   1.347       .  A
N107        N108   1.320       .  A
N107       N2301   1.315   1_445  A
N107       Mn111   2.194       .  S
N108       C2309   1.351   1_445  A
N109        N110   1.319       .  A
N109       Mn855   2.197   1_545  S
N110        C112   1.353       .  A
Mn111      N1567   2.195   1_455  S
Mn111     Cl2320   2.546   1_455  S
C112        C260   1.476       .  S
C113       N2304   1.352       .  A
N114        N115   1.319       .  A
N114        N120   1.314       .  A
N114       Mn122   2.195       .  S
N115        C125   1.353       .  A
N116        N117   1.317       .  A
N116        N118   1.314       .  A
N116       Mn123   2.189       .  S
N117        C126   1.353       .  A
N118        N119   1.321       .  A
N118       Mn122   2.197       .  S
N119        C126   1.354       .  A
N120        N121   1.320       .  A
N120       Mn123   2.201       .  S
N121        C125   1.354       .  A
Mn122      N1560   2.195       .  S
Mn122      Cl124   2.543       .  S
Mn123       N841   2.194       .  S
Mn123      Cl124   2.535       .  S
Cl124     Mn2296   2.535       .  S
Cl124     Mn2307   2.546       .  S
C125        C280   1.479       .  S
C126        C151   1.477       .  S
C127        C128   1.402       .  A
C127        C132   1.397       .  A
C127        H137   1.085       .  S
C128        C129   1.407       .  A
C128        C133   1.478       .  S
C129        C130   1.395       .  A
C129        F134   1.358       .  S
C130        C131   1.403       .  A
C130        H135   1.084       .  S
C131        C132   1.409       .  A
C132        F136   1.357       .  S
C133        C138   1.406       .  A
C133        C142   1.400       .  A
C138        C139   1.398       .  A
C138        F143   1.357       .  S
C139        C140   1.408       .  A
C139        H144   1.083       .  S
C140        C141   1.412       .  A
C141        C142   1.393       .  A
C141        F145   1.356       .  S
C142        H146   1.084       .  S
C147        C148   1.403       .  A
C147        C152   1.401       .  A
C147        H157   1.083       .  S
C148        C149   1.402       .  A
C148        C153   1.473       .  S
C149        C150   1.392       .  A
C149        F154   1.358       .  S
C150        C151   1.404       .  A
C150        H155   1.083       .  S
C151        C152   1.410       .  A
C152        F156   1.357       .  S
C153        C158   1.405       .  A
C153        C162   1.401       .  A
C158        C159   1.401       .  A
C158        F163   1.357       .  S
C159        C160   1.406       .  A
C159        H164   1.083       .  S
C160        C161   1.405       .  A
C161        C162   1.391       .  A
C161        F165   1.358       .  S
C162        H166   1.083       .  S
C167        C168   1.398       .  A
C167        C172   1.390       .  A
C167        H177   1.083       .  S
C168        C169   1.404       .  A
C168        C173   1.472       .  S
C169        C170   1.400       .  A
C169        F174   1.357       .  S
C170        C171   1.407       .  A
C170        H175   1.083       .  S
C171        C172   1.411       .  A
C172        F176   1.357       .  S
C173        C178   1.404       .  A
C173        C182   1.402       .  A
C178        C179   1.393       .  A
C178        F183   1.358       .  S
C179        C180   1.403       .  A
C179        H184   1.084       .  S
C180        C181   1.407       .  A
C181        C182   1.398       .  A
C181        F185   1.358       .  S
C182        H186   1.084       .  S
C187        C188   1.399       .  A
C187        C192   1.392       .  A
C187        H197   1.085       .  S
C188        C189   1.406       .  A
C188        C193   1.475       .  S
C189        C190   1.406       .  A
C189        F194   1.357       .  S
C190        C191   1.408       .  A
C190        H195   1.084       .  S
C191        C192   1.407       .  A
C192        F196   1.357       .  S
C193        C198   1.403       .  A
C193        C202   1.401       .  A
C198        C199   1.401       .  A
C198        F203   1.357       .  S
C199        C200   1.408       .  A
C199        H204   1.083       .  S
C200        C201   1.408       .  A
C201        C202   1.396       .  A
C201        F205   1.357       .  S
C202        H206   1.084       .  S
C207        C208   1.406       .  A
C207        C212   1.397       .  A
C207        H217   1.082       .  S
C208        C209   1.409       .  A
C208        C213   1.488       .  S
C209        C210   1.401       .  A
C209        F214   1.357       .  S
C210        C211   1.404       .  A
C210        H215   1.082       .  S
C211        C212   1.403       .  A
C212        F216   1.358       .  S
C213        C218   1.409       .  A
C213        C222   1.407       .  A
C218        C219   1.397       .  A
C218        F223   1.358       .  S
C219        C220   1.402       .  A
C219        H224   1.085       .  S
C220        C221   1.405       .  A
C221        C222   1.402       .  A
C221        F225   1.357       .  S
C222        H226   1.083       .  S
C227        C228   1.404       .  A
C227        C232   1.399       .  A
C227        H237   1.087       .  S
C228        C229   1.407       .  A
C228        C233   1.487       .  S
C229        C230   1.400       .  A
C229        F234   1.357       .  S
C230        C231   1.406       .  A
C230        H235   1.086       .  S
C231        C232   1.410       .  A
C232        F236   1.357       .  S
C233        C238   1.409       .  A
C233        C242   1.404       .  A
C238        C239   1.401       .  A
C238        F243   1.357       .  S
C239        C240   1.404       .  A
C239        H244   1.085       .  S
C240        C241   1.407       .  A
C241        C242   1.398       .  A
C241        F245   1.358       .  S
C242        H246   1.085       .  S
C247        C248   1.406       .  A
C247        C252   1.399       .  A
C247        H257   1.082       .  S
C248        C249   1.405       .  A
C248        C253   1.478       .  S
C249        C250   1.393       .  A
C249        F254   1.358       .  S
C250        C251   1.405       .  A
C250        H255   1.082       .  S
C251        C252   1.405       .  A
C252        F256   1.357       .  S
C253        C258   1.404       .  A
C253        C262   1.404       .  A
C258        C259   1.395       .  A
C258        F263   1.357       .  S
C259        C260   1.405       .  A
C259        H264   1.083       .  S
C260        C261   1.408       .  A
C261        C262   1.397       .  A
C261        F265   1.357       .  S
C262        H266   1.083       .  S
C267        C268   1.403       .  A
C267        C272   1.399       .  A
C267        H277   1.085       .  S
C268        C269   1.405       .  A
C268        C273   1.475       .  S
C269        C270   1.396       .  A
C269        F274   1.358       .  S
C270        C271   1.403       .  A
C270        H275   1.085       .  S
C271        C272   1.406       .  A
C272        F276   1.357       .  S
C273        C278   1.403       .  A
C273        C282   1.402       .  A
C278        C279   1.398       .  A
C278        F283   1.357       .  S
C279        C280   1.406       .  A
C279        H284   1.082       .  S
C280        C281   1.408       .  A
C281        C282   1.397       .  A
C281        F285   1.357       .  S
C282        H286   1.082       .  S
C287        C288   1.400       .  A
C287        C292   1.392       .  A
C287        H297   1.085       .  S
C288        C289   1.405       .  A
C288        C293   1.472       .  S
C289        C290   1.396       .  A
C289        F294   1.358       .  S
C290        C291   1.405       .  A
C290        H295   1.084       .  S
C291        C292   1.411       .  A
C292        F296   1.357       .  S
C293        C298   1.405       .  A
C293        C302   1.402       .  A
C298        C299   1.390       .  A
C298        F303   1.358       .  S
C299        C300   1.402       .  A
C299        H304   1.086       .  S
C300        C301   1.406       .  A
C301        C302   1.395       .  A
C301        F305   1.357       .  S
C302        H306   1.086       .  S
C307        C308   1.403       .  A
C307        C312   1.395       .  A
C307        H317   1.086       .  S
C308        C309   1.405       .  A
C308        C313   1.473       .  S
C309        C310   1.395       .  A
C309        F680   1.357       .  S
C310        C311   1.402       .  A
C310        H681   1.086       .  S
C311        C312   1.406       .  A
C311        C367   1.472       .  S
C312        F316   1.358       .  S
C313        C318   1.404       .  A
C313        C322   1.401       .  A
F314        C675   1.357       .  S
H315        C676   1.086   1_554  S
C318        C319   1.395       .  A
C318        F323   1.358       .  S
C319        C320   1.405       .  A
C319        H324   1.084       .  S
C320        C321   1.409       .  A
C321        C322   1.395       .  A
C321        F325   1.357       .  S
C322        H326   1.084       .  S
C327        C328   1.399       .  A
C327        C332   1.395       .  A
C327        H703   1.085       .  S
C328        C329   1.402       .  A
C328        C333   1.465       .  S
C329        C330   1.395       .  A
C329        F334   1.358       .  S
C330        C331   1.405       .  A
C330        H335   1.085       .  S
C331        C332   1.408       .  A
C332        F336   1.357       .  S
C333        C338   1.403       .  A
C333        C342   1.399       .  A
H337        C693   1.084       .  S
C338        C705   1.399       .  A
C338        F709   1.357       .  S
C339        C704   1.400   1_554  A
C339        C706   1.401   1_554  A
C339        H344   1.083       .  S
C340        C341   1.404       .  A
C340        C705   1.404       .  A
C340        C369   1.469       .  S
C341        C342   1.391       .  A
C341        F345   1.358       .  S
C342        H346   1.083       .  S
F343        C704   1.357   1_554  S
C347        C348   1.401       .  A
C347        C352   1.401       .  A
C347        H357   1.085       .  S
C348        C349   1.401       .  A
C348        C353   1.471       .  S
C349        C350   1.394       .  A
C349        F354   1.358       .  S
C350        C351   1.404       .  A
C350        H355   1.084       .  S
C351        C352   1.411       .  A
C352        F356   1.357       .  S
C353        C358   1.403       .  A
C353        C362   1.401       .  A
C358        C359   1.393       .  A
C358        F363   1.358       .  S
C359        C360   1.404       .  A
C359        H364   1.083       .  S
C360        C727   1.409       .  A
C360        C371   1.479       .  S
C361        C726   1.409   1_554  A
C361        C728   1.401       .  A
C361        F365   1.357       .  S
C362        C727   1.401       .  A
C362        H732   1.083       .  S
H366        C728   1.083       .  S
C367        C368   1.400       .  A
C367        C372   1.403       .  A
C368        C369   1.397       .  A
C368        H373   1.084       .  S
C369        C370   1.401       .  A
C370        C371   1.403       .  A
C370        H374   1.084       .  S
C371        C372   1.404       .  A
C372        H375   1.084       .  S
C376        C377   1.395       .  A
C376        C381   1.399       .  A
C376        C617   1.468       .  S
C377        C378   1.399       .  A
C377        H382   1.084       .  S
C378        C379   1.406       .  A
C378        C657   1.479       .  S
C379        C380   1.402       .  A
C379        H383   1.084       .  S
C380        C381   1.400       .  A
C380        C637   1.469       .  S
C381        H384   1.083       .  S
C385        C386   1.404       .  A
C385        C390   1.406       .  A
C385        C606   1.484       .  S
C386        C387   1.407       .  A
C386        H391   1.082       .  S
C387        C388   1.407       .  A
C387        C557   1.496       .  S
C388        C389   1.403       .  A
C388        H392   1.083       .  S
C389        C390   1.403       .  A
C389        C586   1.485       .  S
C390        H393   1.083       .  S
C394        C395   1.407       .  A
C394        C399   1.405       .  A
C394        C537   1.489       .  S
C395        C396   1.404       .  A
C395        H400   1.082       .  S
C396        C397   1.403       .  A
C396        C526   1.479       .  S
C397        C398   1.401       .  A
C397        H401   1.084       .  S
C398        C399   1.401       .  A
C398        C506   1.485       .  S
C399        H402   1.083       .  S
N403        N404   1.323       .  A
N403        N409   1.315       .  A
N403       Mn432   2.208       .  S
N404        C411   1.355       .  A
N405        N407   1.315       .  A
N405        N406   1.321       .  A
N405       Mn421   2.205       .  S
N406        C412   1.355       .  A
N407        N408   1.317       .  A
N407       Mn432   2.189       .  S
N408        C412   1.351       .  A
N409        N410   1.317       .  A
N409       Mn421   2.194       .  S
N410        C411   1.352       .  A
C411        C717   1.480       .  S
C412        C566   1.477       .  S
N413       N2615   1.316       .  A
N413        N414   1.318       .  A
N413       Mn443   2.192       .  S
N414        C422   1.350       .  A
N415        N416   1.321       .  A
N415        N417   1.315       .  A
N415      Mn1153   2.202       .  S
N416        C423   1.355       .  A
N417        N418   1.319       .  A
N417      Mn1907   2.194   1_455  S
N418        C423   1.352       .  A
N419       N2609   1.316   1_445  A
N419        N420   1.319       .  A
N419       Mn421   2.192       .  S
N420       C2618   1.350   1_545  A
Mn421      N1147   2.204   1_545  S
Mn421     Cl2641   2.543   1_445  S
C422        C479   1.457       .  S
C422       N2616   1.351       .  A
C423        C597   1.480       .  S
N424        N425   1.322       .  A
N424        N430   1.315       .  A
N424      Mn1896   2.211       .  S
N425        C433   1.356       .  A
N426       N2624   1.316       .  A
N426        N427   1.318       .  A
N426       Mn444   2.191       .  S
N428       N2622   1.315   1_545  A
N428        N429   1.316   1_655  A
N428       Mn432   2.182   1_655  S
N429       C2264   1.349   1_456  A
N430        N431   1.318       .  A
N430      Mn1176   2.193   1_545  S
N431        C433   1.352       .  A
Mn432      N1888   2.206   1_455  S
Mn432     Cl2641   2.546   1_445  S
C433        C686   1.481       .  S
C434        C467   1.451       .  S
C434       N2259   1.349       .  A
N435        N436   1.319       .  A
N435        N441   1.315       .  A
N435       Mn443   2.193       .  S
N436        C446   1.352       .  A
N437        N438   1.319       .  A
N437        N439   1.315       .  A
N437       Mn444   2.191       .  S
N438        C447   1.351       .  A
N439        N440   1.322       .  A
N439       Mn443   2.210       .  S
N440        C447   1.355       .  A
N441        N442   1.322       .  A
N441       Mn444   2.215       .  S
N442        C446   1.356       .  A
Mn443      N1881   2.196       .  S
Mn443      Cl445   2.544       .  S
Mn444      N1162   2.198       .  S
Mn444      Cl445   2.547       .  S
Cl445     Mn2617   2.548       .  S
Cl445     Mn2628   2.547       .  S
C446        C697   1.480       .  S
C447        C577   1.476       .  S
N448        N449   1.319       .  A
N448        N454   1.314       .  A
N448       Mn477   2.182       .  S
N449        C456   1.352       .  A
N450        N452   1.315       .  A
N450        N451   1.320       .  A
N450       Mn466   2.196       .  S
N451        C457   1.352       .  A
N452        N453   1.320       .  A
N452       Mn477   2.199       .  S
N453        C457   1.353       .  A
N454        N455   1.315       .  A
N454       Mn466   2.187       .  S
N455        C456   1.351       .  A
C456        C666   1.467       .  S
C457        C497   1.475       .  S
N458       N2660   1.315       .  A
N458        N459   1.319       .  A
N458       Mn488   2.193       .  S
N459        C467   1.351       .  A
N460        N461   1.318       .  A
N460        N462   1.314       .  A
N460      Mn1198   2.186       .  S
N461        C468   1.351       .  A
N462        N463   1.319       .  A
N462      Mn1952   2.193   1_455  S
N463        C468   1.353       .  A
N464       N2654   1.315   1_445  A
N464        N465   1.319       .  A
N464       Mn466   2.191       .  S
N465       C2663   1.351   1_545  A
Mn466      N1192   2.195   1_545  S
Mn466     Cl2686   2.534   1_545  S
C467       N2661   1.348       .  A
C468        C546   1.471       .  S
N469        N470   1.317       .  A
N469        N475   1.314       .  A
N469      Mn1941   2.188       .  S
N470        C478   1.352       .  A
N471       N2669   1.315       .  A
N471        N472   1.319       .  A
N471       Mn489   2.195       .  S
N472        C479   1.351       .  A
N473       N2667   1.315   1_445  A
N473        N474   1.319       .  A
N473       Mn477   2.193       .  S
N474       C2675   1.351   1_545  A
N475        N476   1.318       .  A
N475      Mn1221   2.186   1_545  S
N476        C478   1.351       .  A
Mn477      N1933   2.184   1_455  S
Mn477     Cl2686   2.548   1_545  S
C478        C626   1.470       .  S
C479       N2670   1.350       .  A
N480        N481   1.318       .  A
N480        N486   1.315       .  A
N480       Mn488   2.195       .  S
N481        C491   1.352       .  A
N482        N483   1.318       .  A
N482        N484   1.314       .  A
N482       Mn489   2.195       .  S
N483        C492   1.353       .  A
N484        N485   1.320       .  A
N484       Mn488   2.192       .  S
N485        C492   1.353       .  A
N486        N487   1.320       .  A
N486       Mn489   2.198       .  S
N487        C491   1.354       .  A
Mn488      N1926   2.187       .  S
Mn488      Cl490   2.544       .  S
Mn489      N1207   2.191       .  S
Mn489      Cl490   2.538       .  S
Cl490     Mn2662   2.531       .  S
Cl490     Mn2673   2.544       .  S
C491        C646   1.473       .  S
C492        C517   1.477       .  S
C493        C494   1.403       .  A
C493        C498   1.399       .  A
C493        H503   1.085       .  S
C494        C495   1.406       .  A
C494        C499   1.478       .  S
C495        C496   1.394       .  A
C495        F500   1.358       .  S
C496        C497   1.403       .  A
C496        H501   1.085       .  S
C497        C498   1.408       .  A
C498        F502   1.357       .  S
C499        C504   1.406       .  A
C499        C508   1.401       .  A
C504        C505   1.399       .  A
C504        F509   1.357       .  S
C505        C506   1.406       .  A
C505        H510   1.084       .  S
C506        C507   1.411       .  A
C507        C508   1.393       .  A
C507        F511   1.356       .  S
C508        H512   1.084       .  S
C513        C514   1.402       .  A
C513        C518   1.400       .  A
C513        H523   1.084       .  S
C514        C515   1.402       .  A
C514        C519   1.471       .  S
C515        C516   1.392       .  A
C515        F520   1.358       .  S
C516        C517   1.404       .  A
C516        H521   1.083       .  S
C517        C518   1.410       .  A
C518        F522   1.357       .  S
C519        C524   1.404       .  A
C519        C528   1.400       .  A
C524        C525   1.401       .  A
C524        F529   1.357       .  S
C525        C526   1.407       .  A
C525        H530   1.083       .  S
C526        C527   1.406       .  A
C527        C528   1.391       .  A
C527        F531   1.357       .  S
C528        H532   1.083       .  S
C533        C534   1.398       .  A
C533        C538   1.389       .  A
C533        H543   1.083       .  S
C534        C535   1.406       .  A
C534        C539   1.476       .  S
C535        C536   1.401       .  A
C535        F540   1.358       .  S
C536        C537   1.409       .  A
C536        H541   1.082       .  S
C537        C538   1.412       .  A
C538        F542   1.356       .  S
C539        C544   1.406       .  A
C539        C548   1.403       .  A
C544        C545   1.394       .  A
C544        F549   1.358       .  S
C545        C546   1.402       .  A
C545        H550   1.084       .  S
C546        C547   1.407       .  A
C547        C548   1.397       .  A
C547        F551   1.358       .  S
C548        H552   1.084       .  S
C553        C554   1.399       .  A
C553        C558   1.393       .  A
C553        H563   1.085       .  S
C554        C555   1.403       .  A
C554        C559   1.475       .  S
C555        C556   1.400       .  A
C555        F560   1.358       .  S
C556        C557   1.412       .  A
C556        H561   1.083       .  S
C557        C558   1.414       .  A
C558        F562   1.356       .  S
C559        C564   1.405       .  A
C559        C568   1.401       .  A
C564        C565   1.398       .  A
C564        F569   1.357       .  S
C565        C566   1.405       .  A
C565        H570   1.084       .  S
C566        C567   1.409       .  A
C567        C568   1.395       .  A
C567        F571   1.357       .  S
C568        H572   1.084       .  S
C573        C574   1.402       .  A
C573        C578   1.399       .  A
C573        H583   1.082       .  S
C574        C575   1.406       .  A
C574        C579   1.479       .  S
C575        C576   1.399       .  A
C575        F580   1.357       .  S
C576        C577   1.404       .  A
C576        H581   1.082       .  S
C577        C578   1.407       .  A
C578        F582   1.358       .  S
C579        C584   1.403       .  A
C579        C588   1.405       .  A
C584        C585   1.395       .  A
C584        F589   1.358       .  S
C585        C586   1.406       .  A
C585        H590   1.084       .  S
C586        C587   1.408       .  A
C587        C588   1.403       .  A
C587        F591   1.357       .  S
C588        H592   1.084       .  S
C593        C594   1.403       .  A
C593        C598   1.397       .  A
C593        H603   1.087       .  S
C594        C595   1.405       .  A
C594        C599   1.480       .  S
C595        C596   1.397       .  A
C595        F600   1.357       .  S
C596        C597   1.406       .  A
C596        H601   1.086       .  S
C597        C598   1.408       .  A
C598        F602   1.357       .  S
C599        C604   1.406       .  A
C599        C608   1.403       .  A
C604        C605   1.398       .  A
C604        F609   1.358       .  S
C605        C606   1.407       .  A
C605        H610   1.085       .  S
C606        C607   1.407       .  A
C607        C608   1.397       .  A
C607        F611   1.357       .  S
C608        H612   1.085       .  S
C613        C614   1.405       .  A
C613        C618   1.395       .  A
C613        H623   1.082       .  S
C614        C615   1.404       .  A
C614        C619   1.471       .  S
C615        C616   1.391       .  A
C615        F620   1.358       .  S
C616        C617   1.404       .  A
C616        H621   1.082       .  S
C617        C618   1.402       .  A
C618        F622   1.357       .  S
C619        C624   1.403       .  A
C619        C628   1.403       .  A
C624        C625   1.391       .  A
C624        F629   1.358       .  S
C625        C626   1.403       .  A
C625        H630   1.083       .  S
C626        C627   1.408       .  A
C627        C628   1.395       .  A
C627        F631   1.358       .  S
C628        H632   1.083       .  S
C633        C634   1.401       .  A
C633        C638   1.396       .  A
C633        H643   1.085       .  S
C634        C635   1.405       .  A
C634        C639   1.470       .  S
C635        C636   1.396       .  A
C635        F640   1.358       .  S
C636        C637   1.401       .  A
C636        H641   1.085       .  S
C637        C638   1.404       .  A
C638        F642   1.357       .  S
C639        C644   1.402       .  A
C639        C648   1.401       .  A
C644        C645   1.396       .  A
C644        F649   1.357       .  S
C645        C646   1.405       .  A
C645        H650   1.082       .  S
C646        C647   1.407       .  A
C647        C648   1.396       .  A
C647        F651   1.358       .  S
C648        H652   1.082       .  S
C653        C654   1.401       .  A
C653        C658   1.389       .  A
C653        H663   1.085       .  S
C654        C655   1.406       .  A
C654        C659   1.474       .  S
C655        C656   1.395       .  A
C655        F660   1.357       .  S
C656        C657   1.404       .  A
C656        H661   1.084       .  S
C657        C658   1.411       .  A
C658        F662   1.358       .  S
C659        C664   1.406       .  A
C659        C668   1.404       .  A
C664        C665   1.386       .  A
C664        F669   1.358       .  S
C665        C666   1.400       .  A
C665        H670   1.086       .  S
C666        C667   1.407       .  A
C667        C668   1.397       .  A
C667        F671   1.357       .  S
C668        H672   1.086       .  S
C673        C674   1.405       .  A
C673        C678   1.401       .  A
C673        H683   1.085       .  S
C674        C675   1.406       .  A
C674        C679   1.483       .  S
C675        C676   1.395       .  A
C676        C677   1.403       .  A
C677        C678   1.409       .  A
C678        F682   1.357       .  S
C679        C684   1.405       .  A
C679        C688   1.405       .  A
C684        C685   1.399       .  A
C684        F689   1.357       .  S
C685        C686   1.407       .  A
C685        H690   1.084       .  S
C686        C687   1.407       .  A
C687        C688   1.398       .  A
C687        F691   1.357       .  S
C688        H692   1.084       .  S
C693        C694   1.407       .  A
C693        C698   1.399       .  A
C694        C695   1.410       .  A
C694        C699   1.491       .  S
C695        C696   1.398       .  A
C695        F700   1.358       .  S
C696        C697   1.404       .  A
C696        H701   1.085       .  S
C697        C698   1.406       .  A
C698        F702   1.357       .  S
C699        C704   1.412       .  A
C699        C708   1.408       .  A
C705        H710   1.083       .  S
C706        C707   1.403       .  A
C707        C708   1.396       .  A
C707        F711   1.358       .  S
C708        H712   1.082       .  S
C713        C714   1.402       .  A
C713        C718   1.402       .  A
C713        H723   1.084   1_556  S
C714        C715   1.400       .  A
C714        C719   1.470       .  S
C715        C716   1.392       .  A
C715        F720   1.358       .  S
C716        C717   1.405       .  A
C716        H721   1.084       .  S
C717        C718   1.411       .  A
C718        F722   1.357       .  S
C719        C724   1.401       .  A
C719        C728   1.402   1_556  A
C724        C725   1.393       .  A
C724        F729   1.358       .  S
C725        C726   1.406       .  A
C725        H730   1.083       .  S
C727        F731   1.357       .  S
C733        C734   1.403       .  A
C733        C738   1.406       .  A
C733       C1409   1.483       .  S
C734        C735   1.399       .  A
C734        H739   1.083       .  S
C735        C736   1.401       .  A
C735       C1438   1.472       .  S
C736        C737   1.406       .  A
C736        H740   1.084       .  S
C737        C738   1.408       .  A
C737       C1458   1.486       .  S
C738        H741   1.083       .  S
C742        C743   1.397       .  A
C742        C747   1.397       .  A
C742        C983   1.468       .  S
C743        C744   1.401       .  A
C743        H748   1.084       .  S
C744        C745   1.407       .  A
C744       C1023   1.482       .  S
C745        C746   1.402       .  A
C745        H749   1.084       .  S
C746        C747   1.397       .  A
C746       C1003   1.468       .  S
C747        H750   1.084       .  S
C751        C752   1.402       .  A
C751        C756   1.407       .  A
C751        C972   1.479       .  S
C752        C753   1.400       .  A
C752        H757   1.083       .  S
C753        C754   1.403       .  A
C753        C923   1.476       .  S
C754        C755   1.401       .  A
C754        H758   1.084       .  S
C755        C756   1.404       .  A
C755        C952   1.480       .  S
C756        H759   1.084       .  S
C760        C761   1.404       .  A
C760        C765   1.406       .  A
C760        C903   1.485       .  S
C761        C762   1.398       .  A
C761        H766   1.083       .  S
C762        C763   1.403       .  A
C762        C892   1.476       .  S
C763        C764   1.406       .  A
C763        H767   1.084       .  S
C764        C765   1.404       .  A
C764        C872   1.492       .  S
C765        H768   1.083       .  S
N769        N770   1.320       .  A
N769        N775   1.314       .  A
N769       Mn798   2.198       .  S
N770        C777   1.354       .  A
N771        N773   1.315       .  A
N771        N772   1.318       .  A
N771       Mn787   2.189       .  S
N772        C778   1.351       .  A
N773        N774   1.319       .  A
N773       Mn798   2.194       .  S
N774        C778   1.353       .  A
N775        N776   1.316       .  A
N775       Mn787   2.182       .  S
N776        C777   1.351       .  A
C777       C1083   1.473       .  S
C778        C932   1.471       .  S
N779       N1517   1.316   1_565  A
N779        N780   1.316       .  A
N779       Mn809   2.180       .  S
N780        C788   1.347       .  A
N781        N782   1.319       .  A
N781        N783   1.315       .  A
N782        C789   1.352       .  A
N783        N784   1.321       .  A
N783      Mn2273   2.205   1_455  S
N784        C789   1.355       .  A
N785       N1511   1.314   1_455  A
N785        N786   1.319       .  A
N785       Mn787   2.181       .  S
N786       C1520   1.349       .  A
Mn787     Cl1543   2.539       .  S
C788        C845   1.456   1_565  S
C788       N1518   1.353   1_565  A
C789        C963   1.480       .  S
N790        N791   1.319       .  A
N790        N796   1.315       .  A
N790      Mn2262   2.195       .  S
N791        C799   1.352       .  A
N792       N1526   1.316   1_565  A
N792        N793   1.319       .  A
N792       Mn810   2.192       .  S
N793       C1166   1.350       .  A
N794       N1524   1.315   1_455  A
N794        N795   1.319       .  A
N794       Mn798   2.196       .  S
N795       C1898   1.351   1_455  A
N796        N797   1.320       .  A
N797        C799   1.354       .  A
Mn798      N2254   2.194   1_455  S
Mn798     Cl1543   2.548       .  S
C799       C1052   1.478       .  S
C800        C833   1.446       .  S
C800       N1159   1.347   1_544  A
C800       N1893   1.350   1_554  A
N801        N802   1.314       .  A
N801        N807   1.314       .  A
N801       Mn809   2.170       .  S
N802        C812   1.349       .  A
N803        N804   1.319       .  A
N803        N805   1.316       .  A
N803       Mn810   2.199       .  S
N804        C813   1.352       .  A
N805        N806   1.324       .  A
N805       Mn809   2.217       .  S
N806        C813   1.357       .  A
N807        N808   1.321       .  A
N807       Mn810   2.201       .  S
N808        C812   1.355       .  A
Mn809      N2247   2.204       .  S
Mn809      Cl811   2.541       .  S
Mn810      Cl811   2.545       .  S
Cl811     Mn1519   2.547   1_565  S
Cl811     Mn1530   2.542   1_565  S
C812       C1063   1.471       .  S
C813        C943   1.483       .  S
N814        N815   1.319       .  A
N814        N820   1.314       .  A
N814       Mn843   2.186       .  S
N815        C822   1.352       .  A
N816        N818   1.315       .  A
N816        N817   1.321       .  A
N816       Mn832   2.203       .  S
N817        C823   1.354       .  A
N818        N819   1.321       .  A
N818       Mn843   2.209       .  S
N819        C823   1.355       .  A
N820        N821   1.315       .  A
N820       Mn832   2.183       .  S
N821        C822   1.351       .  A
C822       C1032   1.466       .  S
C823        C863   1.484       .  S
N824       N1562   1.315   1_565  A
N824        N825   1.318       .  A
N824       Mn854   2.194       .  S
N825        C833   1.351   1_565  A
N826        N827   1.317       .  A
N826        N828   1.314       .  A
N827        C834   1.350       .  A
N828        N829   1.319       .  A
N828      Mn2318   2.190   1_455  S
N829        C834   1.353       .  A
N830       N1556   1.315   1_455  A
N830        N831   1.317       .  A
N830       Mn832   2.188       .  S
N831       C1565   1.350   1_455  A
Mn832     Cl1588   2.536       .  S
C833       N1563   1.346       .  A
C834        C912   1.468       .  S
N835        N836   1.317       .  A
N835        N841   1.315       .  A
N835      Mn2307   2.183       .  S
N836        C844   1.351       .  A
N837       N1571   1.315   1_565  A
N837        N838   1.318       .  A
N837       Mn855   2.193       .  S
N838        C845   1.351   1_565  A
N839       N1569   1.315   1_455  A
N839        N840   1.320       .  A
N839       Mn843   2.197       .  S
N840       C1577   1.352       .  A
N841        N842   1.318       .  A
N842        C844   1.352       .  A
Mn843      N2299   2.183   1_455  S
Mn843     Cl1588   2.545       .  S
C844        C992   1.470       .  S
C845       N1572   1.350       .  A
N846        N847   1.320       .  A
N846        N852   1.315       .  A
N846       Mn854   2.196       .  S
N847        C857   1.353       .  A
N848        N849   1.319       .  A
N848        N850   1.314       .  A
N848       Mn855   2.197       .  S
N849        C858   1.353       .  A
N850        N851   1.319       .  A
N850       Mn854   2.191       .  S
N851        C858   1.352       .  A
N852        N853   1.319       .  A
N852       Mn855   2.199       .  S
N853        C857   1.353       .  A
Mn854      N2292   2.183       .  S
Mn854      Cl856   2.546   1_565  S
Mn855      Cl856   2.536   1_565  S
Cl856     Mn1564   2.529       .  S
Cl856     Mn1575   2.546       .  S
C857       C1012   1.475       .  S
C858        C883   1.476       .  S
C859        C860   1.404       .  A
C859        C864   1.400       .  A
C859        H869   1.085       .  S
C860        C861   1.406       .  A
C860        C865   1.483       .  S
C861        C862   1.399       .  A
C861        F866   1.358       .  S
C862        C863   1.405       .  A
C862        H867   1.084       .  S
C863        C864   1.410       .  A
C864        F868   1.357       .  S
C865        C870   1.405       .  A
C865        C874   1.402       .  A
C870        C871   1.398       .  A
C870        F875   1.357       .  S
C871        C872   1.407       .  A
C871        H876   1.083       .  S
C872        C873   1.413       .  A
C873        C874   1.398       .  A
C873        F877   1.357       .  S
C874        H878   1.084       .  S
C879        C880   1.402       .  A
C879        C884   1.397       .  A
C879        H889   1.084       .  S
C880        C881   1.405       .  A
C880        C885   1.475       .  S
C881        C882   1.395       .  A
C881        F886   1.358       .  S
C882        C883   1.404       .  A
C882        H887   1.083       .  S
C883        C884   1.409       .  A
C884        F888   1.357       .  S
C885        C890   1.406       .  A
C885        C894   1.402       .  A
C890        C891   1.401       .  A
C890        F895   1.358       .  S
C891        C892   1.406       .  A
C891        H896   1.083       .  S
C892        C893   1.403       .  A
C893        C894   1.392       .  A
C893        F897   1.357       .  S
C894        H898   1.083       .  S
C899        C900   1.399       .  A
C899        C904   1.391       .  A
C899        H909   1.083       .  S
C900        C901   1.403       .  A
C900        C905   1.471       .  S
C901        C902   1.397       .  A
C901        F906   1.358       .  S
C902        C903   1.408       .  A
C902        H907   1.083       .  S
C903        C904   1.411       .  A
C904        F908   1.357       .  S
C905        C910   1.404       .  A
C905        C914   1.402       .  A
C910        C911   1.394       .  A
C910        F915   1.358       .  S
C911        C912   1.403       .  A
C911        H916   1.084       .  S
C912        C913   1.406       .  A
C913        C914   1.394       .  A
C913        F917   1.358       .  S
C914        H918   1.084       .  S
C919        C920   1.398       .  A
C919        C924   1.390       .  A
C919        H929   1.085       .  S
C920        C921   1.402       .  A
C920        C925   1.463       .  S
C921        C922   1.400       .  A
C921        F926   1.357       .  S
C922        C923   1.407       .  A
C922        H927   1.084       .  S
C923        C924   1.406       .  A
C924        F928   1.358       .  S
C925        C930   1.400       .  A
C925        C934   1.400       .  A
C930        C931   1.394       .  A
C930        F935   1.358       .  S
C931        C932   1.405       .  A
C931        H936   1.083       .  S
C932        C933   1.407       .  A
C933        C934   1.396       .  A
C933        F937   1.358       .  S
C934        H938   1.083       .  S
C939        C940   1.400       .  A
C939        C944   1.398       .  A
C939        H949   1.082       .  S
C940        C941   1.404       .  A
C940        C945   1.476       .  S
C941        C942   1.403       .  A
C941        F946   1.357       .  S
C942        C943   1.407       .  A
C942        H947   1.082       .  S
C943        C944   1.409       .  A
C944        F948   1.357       .  S
C945        C950   1.403       .  A
C945        C954   1.403       .  A
C950        C951   1.396       .  A
C950        F955   1.358       .  S
C951        C952   1.404       .  A
C951        H956   1.084       .  S
C952        C953   1.407       .  A
C953        C954   1.403       .  A
C953        F957   1.357       .  S
C954        H958   1.084       .  S
C959        C960   1.403       .  A
C959        C964   1.396       .  A
C959        H969   1.087       .  S
C960        C961   1.407       .  A
C960        C965   1.481       .  S
C961        C962   1.398       .  A
C961        F966   1.357       .  S
C962        C963   1.405       .  A
C962        H967   1.086       .  S
C963        C964   1.409       .  A
C964        F968   1.357       .  S
C965        C970   1.407       .  A
C965        C974   1.404       .  A
C970        C971   1.398       .  A
C970        F975   1.357       .  S
C971        C972   1.405       .  A
C971        H976   1.085       .  S
C972        C973   1.406       .  A
C973        C974   1.395       .  A
C973        F977   1.357       .  S
C974        H978   1.085       .  S
C979        C980   1.404       .  A
C979        C984   1.395       .  A
C979        H989   1.082       .  S
C980        C981   1.404       .  A
C980        C985   1.470       .  S
C981        C982   1.391       .  A
C981        F986   1.358       .  S
C982        C983   1.403       .  A
C982        H987   1.082       .  S
C983        C984   1.402       .  A
C984        F988   1.357       .  S
C985        C990   1.403       .  A
C985        C994   1.402       .  A
C990        C991   1.393       .  A
C990        F995   1.358       .  S
C991        C992   1.404       .  A
C991        H996   1.083       .  S
C992        C993   1.407       .  A
C993        C994   1.393       .  A
C993        F997   1.357       .  S
C994        H998   1.083       .  S
C999       C1000   1.402       .  A
C999       C1004   1.397       .  A
C999       H1009   1.085       .  S
C1000      C1001   1.405       .  A
C1000      C1005   1.470       .  S
C1001      C1002   1.394       .  A
C1001      F1006   1.358       .  S
C1002      C1003   1.401       .  A
C1002      H1007   1.085       .  S
C1003      C1004   1.404       .  A
C1004      F1008   1.357       .  S
C1005      C1010   1.402       .  A
C1005      C1014   1.402       .  A
C1010      C1011   1.394       .  A
C1010      F1015   1.358       .  S
C1011      C1012   1.405       .  A
C1011      H1016   1.082       .  S
C1012      C1013   1.408       .  A
C1013      C1014   1.398       .  A
C1013      F1017   1.358       .  S
C1014      H1018   1.082       .  S
C1019      C1020   1.399       .  A
C1019      C1024   1.389       .  A
C1019      H1029   1.085       .  S
C1020      C1021   1.405       .  A
C1020      C1025   1.471       .  S
C1021      C1022   1.396       .  A
C1021      F1026   1.358       .  S
C1022      C1023   1.406       .  A
C1022      H1027   1.084       .  S
C1023      C1024   1.411       .  A
C1024      F1028   1.357       .  S
C1025      C1030   1.405       .  A
C1025      C1034   1.403       .  A
C1030      C1031   1.388       .  A
C1030      F1035   1.358       .  S
C1031      C1032   1.401       .  A
C1031      H1036   1.086       .  S
C1032      C1033   1.407       .  A
C1033      C1034   1.397       .  A
C1033      F1037   1.357       .  S
C1034      H1038   1.086       .  S
C1039      C1040   1.404       .  A
C1039      C1044   1.393       .  A
C1039      H1049   1.085       .  S
C1040      C1041   1.409       .  A
C1040      C1045   1.484       .  S
C1041      C1042   1.398       .  A
C1041      F1412   1.357       .  S
C1042      C1043   1.405       .  A
C1042      H1413   1.085       .  S
C1043      C1044   1.407       .  A
C1043      C1099   1.481       .  S
C1044      F1048   1.357       .  S
C1045      C1050   1.408       .  A
C1045      C1054   1.404       .  A
F1046      C1407   1.357       .  S
H1047      C1408   1.086   1_554  S
C1050      C1051   1.396       .  A
C1050      F1055   1.358       .  S
C1051      C1052   1.404       .  A
C1051      H1056   1.084       .  S
C1052      C1053   1.408       .  A
C1053      C1054   1.397       .  A
C1053      F1057   1.357       .  S
C1054      H1058   1.084       .  S
C1059      C1060   1.402       .  A
C1059      C1064   1.396       .  A
C1059      H1435   1.085       .  S
C1060      C1061   1.402       .  A
C1060      C1065   1.468       .  S
C1061      C1062   1.391       .  A
C1061      F1066   1.358       .  S
C1062      C1063   1.406       .  A
C1062      H1067   1.084       .  S
C1063      C1064   1.406       .  A
C1064      F1068   1.357       .  S
C1065      C1070   1.404       .  A
C1065      C1074   1.402       .  A
H1069      C1425   1.085       .  S
C1070      C1437   1.396       .  A
C1070      F1441   1.357       .  S
C1071      C1436   1.399       .  A
C1071      C1438   1.402   1_554  A
C1071      H1076   1.082       .  S
C1072      C1437   1.401       .  A
C1072      C1073   1.404       .  A
C1072      C1101   1.467       .  S
C1073      C1074   1.393       .  A
C1073      F1077   1.358       .  S
C1074      H1078   1.083       .  S
F1075      C1436   1.357       .  S
C1079      C1080   1.401       .  A
C1079      C1084   1.398       .  A
C1079      H1089   1.084       .  S
C1080      C1081   1.401       .  A
C1080      C1085   1.466       .  S
C1081      C1082   1.391       .  A
C1081      F1086   1.358       .  S
C1082      C1083   1.405       .  A
C1082      H1087   1.084       .  S
C1083      C1084   1.409       .  A
C1084      F1088   1.357       .  S
C1085      C1090   1.401       .  A
C1085      C1094   1.401       .  A
C1090      C1091   1.390       .  A
C1090      F1095   1.358       .  S
C1091      C1092   1.405       .  A
C1091      H1096   1.083       .  S
C1092      C1459   1.409       .  A
C1092      C1103   1.478       .  S
C1093      C1458   1.410   1_554  A
C1093      C1460   1.402       .  A
C1093      F1097   1.357       .  S
C1094      C1459   1.399       .  A
C1094      H1464   1.083       .  S
H1098      C1460   1.083       .  S
C1099      C1100   1.403       .  A
C1099      C1104   1.406       .  A
C1100      C1101   1.398       .  A
C1100      H1105   1.083       .  S
C1101      C1102   1.397       .  A
C1102      C1103   1.401       .  A
C1102      H1106   1.084       .  S
C1103      C1104   1.403       .  A
C1104      H1107   1.083       .  S
C1108      C1109   1.398       .  A
C1108      C1113   1.399       .  A
C1108      C1349   1.469       .  S
C1109      C1110   1.401       .  A
C1109      H1114   1.084       .  S
C1110      C1111   1.406       .  A
C1110      C1389   1.483       .  S
C1111      C1112   1.402       .  A
C1111      H1115   1.084       .  S
C1112      C1113   1.398       .  A
C1112      C1369   1.468       .  S
C1113      H1116   1.083       .  S
C1117      C1118   1.407       .  A
C1117      C1122   1.402       .  A
C1117      C1338   1.485       .  S
C1118      C1119   1.412       .  A
C1118      H1123   1.082       .  S
C1119      C1120   1.409       .  A
C1119      C1289   1.496       .  S
C1120      C1121   1.400       .  A
C1120      H1124   1.083       .  S
C1121      C1122   1.400       .  A
C1121      C1318   1.475       .  S
C1122      H1125   1.084       .  S
C1126      C1127   1.407       .  A
C1126      C1131   1.406       .  A
C1126      C1269   1.489       .  S
C1127      C1128   1.403       .  A
C1127      H1132   1.083       .  S
C1128      C1129   1.402       .  A
C1128      C1258   1.480       .  S
C1129      C1130   1.402       .  A
C1129      H1133   1.084       .  S
C1130      C1131   1.404       .  A
C1130      C1238   1.487       .  S
C1131      H1134   1.083       .  S
N1135      N1136   1.323       .  A
N1135      N1141   1.316       .  A
N1135     Mn1164   2.217       .  S
N1136      C1143   1.356       .  A
N1137      N1139   1.315       .  A
N1137      N1138   1.320       .  A
N1137     Mn1153   2.204       .  S
N1138      C1144   1.353       .  A
N1139      N1140   1.321       .  A
N1139     Mn1164   2.200       .  S
N1140      C1144   1.355       .  A
N1141      N1142   1.320       .  A
N1141     Mn1153   2.202       .  S
N1142      C1143   1.354       .  A
C1143      C1449   1.484       .  S
C1144      C1298   1.481       .  S
N1145      N1883   1.316       .  A
N1145      N1146   1.319       .  A
N1145     Mn1175   2.191       .  S
N1146      C1154   1.351       .  A
N1147      N1148   1.321       .  A
N1147      N1149   1.315       .  A
N1148      C1155   1.355       .  A
N1149      N1150   1.320       .  A
N1149     Mn2639   2.206   1_455  S
N1150      C1155   1.354       .  A
N1151      N1877   1.316   1_455  A
N1151      N1152   1.319       .  A
N1151     Mn1153   2.195       .  S
N1152      C1886   1.351       .  A
Mn1153    Cl1909   2.546       .  S
C1154      C1211   1.455       .  S
C1154      N1884   1.350   1_565  A
C1155      C1329   1.484       .  S
N1156      N1157   1.320       .  A
N1156      N1162   1.316       .  A
N1156     Mn2628   2.209       .  S
N1157      C1165   1.355       .  A
N1158      N1892   1.315   1_565  A
N1158      N1159   1.316       .  A
N1158     Mn1176   2.176       .  S
N1160      N1890   1.316   1_455  A
N1160      N1161   1.316   1_556  A
N1160     Mn1164   2.180       .  S
N1161      C1532   1.347   1_455  A
N1162      N1163   1.321       .  A
N1163      C1165   1.353       .  A
Mn1164     N2620   2.208   1_455  S
Mn1164    Cl1909   2.546       .  S
C1165      C1418   1.482       .  S
C1166      C1199   1.454       .  S
C1166      N1527   1.350   1_565  A
N1167      N1168   1.316       .  A
N1167      N1173   1.314       .  A
N1167     Mn1175   2.184       .  S
N1168      C1178   1.350       .  A
N1169      N1170   1.315       .  A
N1169      N1171   1.314       .  A
N1169     Mn1176   2.179       .  S
N1170      C1179   1.349       .  A
N1171      N1172   1.324       .  A
N1171     Mn1175   2.212       .  S
N1172      C1179   1.357       .  A
N1173      N1174   1.322       .  A
N1173     Mn1176   2.202       .  S
N1174      C1178   1.355       .  A
Mn1175     N2613   2.199       .  S
Mn1175    Cl1177   2.547       .  S
Mn1176    Cl1177   2.539       .  S
Cl1177    Mn1885   2.540   1_565  S
Cl1177    Mn1896   2.549   1_565  S
C1178      C1429   1.471       .  S
C1179      C1309   1.475       .  S
N1180      N1181   1.320       .  A
N1180      N1186   1.313       .  A
N1180     Mn1209   2.186       .  S
N1181      C1188   1.353       .  A
N1182      N1184   1.314       .  A
N1182      N1183   1.318       .  A
N1182     Mn1198   2.187       .  S
N1183      C1189   1.351       .  A
N1184      N1185   1.320       .  A
N1184     Mn1209   2.196       .  S
N1185      C1189   1.354       .  A
N1186      N1187   1.314       .  A
N1186     Mn1198   2.179       .  S
N1187      C1188   1.350       .  A
C1188      C1398   1.467       .  S
C1189      C1229   1.474       .  S
N1190      N1928   1.316   1_565  A
N1190      N1191   1.319       .  A
N1190     Mn1220   2.194       .  S
N1191      C1199   1.351       .  A
N1192      N1193   1.320       .  A
N1192      N1194   1.315       .  A
N1193      C1200   1.352       .  A
N1194      N1195   1.319       .  A
N1194     Mn2684   2.202   1_455  S
N1195      C1200   1.354       .  A
N1196      N1922   1.315   1_455  A
N1196      N1197   1.317       .  A
N1196     Mn1198   2.181       .  S
N1197      C1931   1.348       .  A
Mn1198    Cl1954   2.529       .  S
C1199      N1929   1.349   1_565  A
C1200      C1278   1.476       .  S
N1201      N1202   1.317       .  A
N1201      N1207   1.315       .  A
N1201     Mn2673   2.186       .  S
N1202      C1210   1.352       .  A
N1203      N1937   1.315   1_565  A
N1203      N1204   1.318       .  A
N1203     Mn1221   2.189       .  S
N1204      C1211   1.350       .  A
N1205      N1935   1.315   1_455  A
N1205      N1206   1.318       .  A
N1205     Mn1209   2.182       .  S
N1206      C1943   1.348       .  A
N1207      N1208   1.318       .  A
N1208      C1210   1.352       .  A
Mn1209     N2665   2.186   1_455  S
Mn1209    Cl1954   2.545       .  S
C1210      C1358   1.470       .  S
C1211      N1938   1.350   1_565  A
N1212      N1213   1.321       .  A
N1212      N1218   1.315       .  A
N1212     Mn1220   2.205       .  S
N1213      C1223   1.355       .  A
N1214      N1215   1.317       .  A
N1214      N1216   1.314       .  A
N1214     Mn1221   2.188       .  S
N1215      C1224   1.351       .  A
N1216      N1217   1.322       .  A
N1216     Mn1220   2.208       .  S
N1217      C1224   1.356       .  A
N1218      N1219   1.318       .  A
N1218     Mn1221   2.188       .  S
N1219      C1223   1.351       .  A
Mn1220     N2658   2.206       .  S
Mn1220    Cl1222   2.550       .  S
Mn1221    Cl1222   2.535       .  S
Cl1222    Mn1930   2.532   1_565  S
Cl1222    Mn1941   2.547   1_565  S
C1223      C1378   1.475       .  S
C1224      C1249   1.480       .  S
C1225      C1226   1.404       .  A
C1225      C1230   1.397       .  A
C1225      H1235   1.085       .  S
C1226      C1227   1.408       .  A
C1226      C1231   1.482       .  S
C1227      C1228   1.395       .  A
C1227      F1232   1.358       .  S
C1228      C1229   1.403       .  A
C1228      H1233   1.084       .  S
C1229      C1230   1.408       .  A
C1230      F1234   1.357       .  S
C1231      C1236   1.408       .  A
C1231      C1240   1.402       .  A
C1236      C1237   1.398       .  A
C1236      F1241   1.358       .  S
C1237      C1238   1.407       .  A
C1237      H1242   1.084       .  S
C1238      C1239   1.410       .  A
C1239      C1240   1.394       .  A
C1239      F1243   1.357       .  S
C1240      H1244   1.084       .  S
C1245      C1246   1.404       .  A
C1245      C1250   1.401       .  A
C1245      H1255   1.083       .  S
C1246      C1247   1.405       .  A
C1246      C1251   1.479       .  S
C1247      C1248   1.394       .  A
C1247      F1252   1.358       .  S
C1248      C1249   1.405       .  A
C1248      H1253   1.083       .  S
C1249      C1250   1.409       .  A
C1250      F1254   1.357       .  S
C1251      C1256   1.407       .  A
C1251      C1260   1.402       .  A
C1256      C1257   1.402       .  A
C1256      F1261   1.357       .  S
C1257      C1258   1.406       .  A
C1257      H1262   1.083       .  S
C1258      C1259   1.406       .  A
C1259      C1260   1.392       .  A
C1259      F1263   1.358       .  S
C1260      H1264   1.083       .  S
C1265      C1266   1.400       .  A
C1265      C1270   1.394       .  A
C1265      H1275   1.083       .  S
C1266      C1267   1.404       .  A
C1266      C1271   1.477       .  S
C1267      C1268   1.400       .  A
C1267      F1272   1.357       .  S
C1268      C1269   1.408       .  A
C1268      H1273   1.083       .  S
C1269      C1270   1.412       .  A
C1270      F1274   1.357       .  S
C1271      C1276   1.404       .  A
C1271      C1280   1.403       .  A
C1276      C1277   1.396       .  A
C1276      F1281   1.357       .  S
C1277      C1278   1.404       .  A
C1277      H1282   1.084       .  S
C1278      C1279   1.408       .  A
C1279      C1280   1.399       .  A
C1279      F1283   1.358       .  S
C1280      H1284   1.084       .  S
C1285      C1286   1.399       .  A
C1285      C1290   1.393       .  A
C1285      H1295   1.084       .  S
C1286      C1287   1.405       .  A
C1286      C1291   1.479       .  S
C1287      C1288   1.403       .  A
C1287      F1292   1.357       .  S
C1288      C1289   1.411       .  A
C1288      H1293   1.083       .  S
C1289      C1290   1.414       .  A
C1290      F1294   1.357       .  S
C1291      C1296   1.405       .  A
C1291      C1300   1.403       .  A
C1296      C1297   1.398       .  A
C1296      F1301   1.358       .  S
C1297      C1298   1.406       .  A
C1297      H1302   1.084       .  S
C1298      C1299   1.408       .  A
C1299      C1300   1.399       .  A
C1299      F1303   1.357       .  S
C1300      H1304   1.084       .  S
C1305      C1306   1.404       .  A
C1305      C1310   1.392       .  A
C1305      H1315   1.083       .  S
C1306      C1307   1.409       .  A
C1306      C1311   1.486       .  S
C1307      C1308   1.403       .  A
C1307      F1312   1.357       .  S
C1308      C1309   1.404       .  A
C1308      H1313   1.082       .  S
C1309      C1310   1.406       .  A
C1310      F1314   1.358       .  S
C1311      C1316   1.409       .  A
C1311      C1320   1.408       .  A
C1316      C1317   1.391       .  A
C1316      F1321   1.358       .  S
C1317      C1318   1.400       .  A
C1317      H1322   1.085       .  S
C1318      C1319   1.405       .  A
C1319      C1320   1.404       .  A
C1319      F1323   1.357       .  S
C1320      H1324   1.083       .  S
C1325      C1326   1.404       .  A
C1325      C1330   1.400       .  A
C1325      H1335   1.087       .  S
C1326      C1327   1.406       .  A
C1326      C1331   1.485       .  S
C1327      C1328   1.398       .  A
C1327      F1332   1.357       .  S
C1328      C1329   1.406       .  A
C1328      H1333   1.086       .  S
C1329      C1330   1.410       .  A
C1330      F1334   1.357       .  S
C1331      C1336   1.408       .  A
C1331      C1340   1.404       .  A
C1336      C1337   1.398       .  A
C1336      F1341   1.357       .  S
C1337      C1338   1.403       .  A
C1337      H1342   1.085       .  S
C1338      C1339   1.409       .  A
C1339      C1340   1.400       .  A
C1339      F1343   1.358       .  S
C1340      H1344   1.085       .  S
C1345      C1346   1.406       .  A
C1345      C1350   1.396       .  A
C1345      H1355   1.082       .  S
C1346      C1347   1.404       .  A
C1346      C1351   1.473       .  S
C1347      C1348   1.390       .  A
C1347      F1352   1.358       .  S
C1348      C1349   1.403       .  A
C1348      H1353   1.082       .  S
C1349      C1350   1.402       .  A
C1350      F1354   1.357       .  S
C1351      C1356   1.404       .  A
C1351      C1360   1.403       .  A
C1356      C1357   1.393       .  A
C1356      F1361   1.358       .  S
C1357      C1358   1.404       .  A
C1357      H1362   1.083       .  S
C1358      C1359   1.407       .  A
C1359      C1360   1.393       .  A
C1359      F1363   1.357       .  S
C1360      H1364   1.083       .  S
C1365      C1366   1.403       .  A
C1365      C1370   1.397       .  A
C1365      H1375   1.085       .  S
C1366      C1367   1.404       .  A
C1366      C1371   1.471       .  S
C1367      C1368   1.394       .  A
C1367      F1372   1.358       .  S
C1368      C1369   1.401       .  A
C1368      H1373   1.085       .  S
C1369      C1370   1.404       .  A
C1370      F1374   1.357       .  S
C1371      C1376   1.402       .  A
C1371      C1380   1.402       .  A
C1376      C1377   1.395       .  A
C1376      F1381   1.358       .  S
C1377      C1378   1.406       .  A
C1377      H1382   1.082       .  S
C1378      C1379   1.407       .  A
C1379      C1380   1.397       .  A
C1379      F1383   1.357       .  S
C1380      H1384   1.082       .  S
C1385      C1386   1.401       .  A
C1385      C1390   1.390       .  A
C1385      H1395   1.085       .  S
C1386      C1387   1.405       .  A
C1386      C1391   1.474       .  S
C1387      C1388   1.396       .  A
C1387      F1392   1.357       .  S
C1388      C1389   1.406       .  A
C1388      H1393   1.084       .  S
C1389      C1390   1.411       .  A
C1390      F1394   1.357       .  S
C1391      C1396   1.405       .  A
C1391      C1400   1.404       .  A
C1396      C1397   1.386       .  A
C1396      F1401   1.358       .  S
C1397      C1398   1.401       .  A
C1397      H1402   1.086       .  S
C1398      C1399   1.407       .  A
C1399      C1400   1.398       .  A
C1399      F1403   1.357       .  S
C1400      H1404   1.086       .  S
C1405      C1406   1.405       .  A
C1405      C1410   1.400       .  A
C1405      H1415   1.085       .  S
C1406      C1407   1.406       .  A
C1406      C1411   1.482       .  S
C1407      C1408   1.395       .  A
C1408      C1409   1.404       .  A
C1409      C1410   1.409       .  A
C1410      F1414   1.357       .  S
C1411      C1416   1.406       .  A
C1411      C1420   1.403       .  A
C1416      C1417   1.401       .  A
C1416      F1421   1.358       .  S
C1417      C1418   1.408       .  A
C1417      H1422   1.084       .  S
C1418      C1419   1.407       .  A
C1419      C1420   1.395       .  A
C1419      F1423   1.357       .  S
C1420      H1424   1.084       .  S
C1425      C1426   1.406       .  A
C1425      C1430   1.398       .  A
C1426      C1427   1.407       .  A
C1426      C1431   1.482       .  S
C1427      C1428   1.393       .  A
C1427      F1432   1.358       .  S
C1428      C1429   1.403       .  A
C1428      H1433   1.085       .  S
C1429      C1430   1.405       .  A
C1430      F1434   1.357       .  S
C1431      C1436   1.408   1_556  A
C1431      C1440   1.406       .  A
C1437      H1442   1.083       .  S
C1438      C1439   1.402       .  A
C1439      C1440   1.393       .  A
C1439      F1443   1.358       .  S
C1440      H1444   1.082       .  S
C1445      C1446   1.402       .  A
C1445      C1450   1.402       .  A
C1445      H1455   1.084   1_556  S
C1446      C1447   1.403       .  A
C1446      C1451   1.476       .  S
C1447      C1448   1.398       .  A
C1447      F1452   1.358       .  S
C1448      C1449   1.406       .  A
C1448      H1453   1.084       .  S
C1449      C1450   1.410       .  A
C1450      F1454   1.357       .  S
C1451      C1456   1.403       .  A
C1451      C1460   1.402   1_556  A
C1456      C1457   1.396       .  A
C1456      F1461   1.358       .  S
C1457      C1458   1.406       .  A
C1457      H1462   1.083       .  S
C1459      F1463   1.357       .  S
C1465      C1466   1.403       .  A
C1465      C1470   1.405       .  A
C1465      C2141   1.479       .  S
C1466      C1467   1.399       .  A
C1466      H1471   1.084       .  S
C1467      C1468   1.402       .  A
C1467      C2170   1.480       .  S
C1468      C1469   1.405       .  A
C1468      H1472   1.084       .  S
C1469      C1470   1.409       .  A
C1469      C2190   1.489       .  S
C1470      H1473   1.083       .  S
C1474      C1475   1.398       .  A
C1474      C1479   1.402       .  A
C1474      C1715   1.475       .  S
C1475      C1476   1.401       .  A
C1475      H1480   1.084       .  S
C1476      C1477   1.407       .  A
C1476      C1755   1.484       .  S
C1477      C1478   1.402       .  A
C1477      H1481   1.084       .  S
C1478      C1479   1.401       .  A
C1478      C1735   1.471       .  S
C1479      H1482   1.083       .  S
C1483      C1484   1.404       .  A
C1483      C1488   1.403       .  A
C1483      C1704   1.478       .  S
C1484      C1485   1.402       .  A
C1484      H1489   1.083       .  S
C1485      C1486   1.402       .  A
C1485      C1655   1.471       .  S
C1486      C1487   1.399       .  A
C1486      H1490   1.085       .  S
C1487      C1488   1.398       .  A
C1487      C1684   1.468       .  S
C1488      H1491   1.084       .  S
C1492      C1493   1.408       .  A
C1492      C1497   1.406       .  A
C1492      C1635   1.489       .  S
C1493      C1494   1.404       .  A
C1493      H1498   1.083       .  S
C1494      C1495   1.403       .  A
C1494      C1624   1.479       .  S
C1495      C1496   1.401       .  A
C1495      H1499   1.084       .  S
C1496      C1497   1.402       .  A
C1496      C1604   1.486       .  S
C1497      H1500   1.083       .  S
N1501      N1502   1.322       .  A
N1501      N1507   1.314       .  A
N1501     Mn1530   2.200       .  S
N1502      C1509   1.354       .  A
N1503      N1505   1.314       .  A
N1503      N1504   1.320       .  A
N1503     Mn1519   2.193       .  S
N1504      C1510   1.353       .  A
N1505      N1506   1.319       .  A
N1505     Mn1530   2.199       .  S
N1506      C1510   1.353       .  A
N1507      N1508   1.320       .  A
N1507     Mn1519   2.208       .  S
N1508      C1509   1.355       .  A
C1509      C1815   1.483       .  S
C1510      C1664   1.477       .  S
N1511      N1512   1.317       .  A
N1511     Mn1541   2.187       .  S
N1512      C1520   1.350   1_655  A
N1513      N1514   1.320       .  A
N1513      N1515   1.315       .  A
N1513     Mn2251   2.198       .  S
N1514      C1521   1.354       .  A
N1515      N1516   1.320       .  A
N1516      C1521   1.354       .  A
N1517      N1518   1.321       .  A
N1517     Mn1519   2.207       .  S
Mn1519     N2245   2.186   1_545  S
C1520      C1577   1.451       .  S
C1521      C1695   1.481       .  S
N1522      N1523   1.319       .  A
N1522      N1528   1.315       .  A
N1523      C1531   1.353       .  A
N1524      N1525   1.318       .  A
N1524     Mn1542   2.186       .  S
N1525      C1898   1.349       .  A
N1526      N1527   1.318       .  A
N1526     Mn1530   2.191       .  S
N1528      N1529   1.319       .  A
N1528     Mn2274   2.195   1_545  S
N1529      C1531   1.353       .  A
C1531      C1784   1.477       .  S
C1532      C1565   1.447       .  S
C1532      N1891   1.351       .  A
N1533      N1534   1.316       .  A
N1533      N1539   1.315       .  A
N1533     Mn1541   2.182       .  S
N1534      C1544   1.350       .  A
N1535      N1536   1.315       .  A
N1535      N1537   1.315       .  A
N1535     Mn1542   2.179       .  S
N1536      C1545   1.349       .  A
N1537      N1538   1.322       .  A
N1537     Mn1541   2.211       .  S
N1538      C1545   1.356       .  A
N1539      N1540   1.321       .  A
N1539     Mn1542   2.203       .  S
N1540      C1544   1.354       .  A
Mn1541    Cl1543   2.544   1_655  S
Mn1542     N2260   2.204       .  S
Mn1542    Cl1543   2.538   1_655  S
C1544      C1795   1.473       .  S
C1545      C1675   1.475       .  S
N1546      N1547   1.318       .  A
N1546      N1552   1.313       .  A
N1546     Mn1575   2.188       .  S
N1547      C1554   1.352       .  A
N1548      N1550   1.315       .  A
N1548      N1549   1.318       .  A
N1548     Mn1564   2.187       .  S
N1549      C1555   1.350       .  A
N1550      N1551   1.321       .  A
N1550     Mn1575   2.203       .  S
N1551      C1555   1.355       .  A
N1552      N1553   1.316       .  A
N1552     Mn1564   2.175       .  S
N1553      C1554   1.350       .  A
C1554      C1764   1.467       .  S
C1555      C1595   1.475       .  S
N1556      N1557   1.317       .  A
N1556     Mn1586   2.181       .  S
N1557      C1565   1.348       .  A
N1558      N1559   1.320       .  A
N1558      N1560   1.315       .  A
N1558     Mn2296   2.194       .  S
N1559      C1566   1.352       .  A
N1560      N1561   1.318       .  A
N1561      C1566   1.353       .  A
N1562      N1563   1.315       .  A
N1562     Mn1564   2.172       .  S
Mn1564     N2290   2.186   1_545  S
C1566      C1644   1.473       .  S
N1567      N1568   1.318       .  A
N1567      N1573   1.315       .  A
N1568      C1576   1.353       .  A
N1569      N1570   1.316       .  A
N1569     Mn1587   2.177       .  S
N1570      C1577   1.347   1_655  A
N1571      N1572   1.320       .  A
N1571     Mn1575   2.189       .  S
N1573      N1574   1.319       .  A
N1573     Mn2319   2.195   1_545  S
N1574      C1576   1.352       .  A
C1576      C1724   1.475       .  S
N1578      N1579   1.320       .  A
N1578      N1584   1.314       .  A
N1578     Mn1586   2.198       .  S
N1579      C1589   1.354       .  A
N1580      N1581   1.319       .  A
N1580      N1582   1.313       .  A
N1580     Mn1587   2.192       .  S
N1581      C1590   1.354       .  A
N1582      N1583   1.320       .  A
N1582     Mn1586   2.198       .  S
N1583      C1590   1.354       .  A
N1584      N1585   1.319       .  A
N1584     Mn1587   2.199       .  S
N1585      C1589   1.353       .  A
Mn1586    Cl1588   2.544   1_655  S
Mn1587     N2305   2.189       .  S
Mn1587    Cl1588   2.537   1_655  S
C1589      C1744   1.477       .  S
C1590      C1615   1.479       .  S
C1591      C1592   1.402       .  A
C1591      C1596   1.397       .  A
C1591      H1601   1.085       .  S
C1592      C1593   1.406       .  A
C1592      C1597   1.477       .  S
C1593      C1594   1.396       .  A
C1593      F1598   1.358       .  S
C1594      C1595   1.403       .  A
C1594      H1599   1.084       .  S
C1595      C1596   1.408       .  A
C1596      F1600   1.357       .  S
C1597      C1602   1.406       .  A
C1597      C1606   1.401       .  A
C1602      C1603   1.399       .  A
C1602      F1607   1.357       .  S
C1603      C1604   1.407       .  A
C1603      H1608   1.083       .  S
C1604      C1605   1.411       .  A
C1605      C1606   1.394       .  A
C1605      F1609   1.357       .  S
C1606      H1610   1.084       .  S
C1611      C1612   1.402       .  A
C1611      C1616   1.400       .  A
C1611      H1621   1.084       .  S
C1612      C1613   1.404       .  A
C1612      C1617   1.476       .  S
C1613      C1614   1.395       .  A
C1613      F1618   1.358       .  S
C1614      C1615   1.405       .  A
C1614      H1619   1.083       .  S
C1615      C1616   1.410       .  A
C1616      F1620   1.357       .  S
C1617      C1622   1.406       .  A
C1617      C1626   1.401       .  A
C1622      C1623   1.403       .  A
C1622      F1627   1.357       .  S
C1623      C1624   1.406       .  A
C1623      H1628   1.083       .  S
C1624      C1625   1.406       .  A
C1625      C1626   1.392       .  A
C1625      F1629   1.358       .  S
C1626      H1630   1.083       .  S
C1631      C1632   1.399       .  A
C1631      C1636   1.391       .  A
C1631      H1641   1.083       .  S
C1632      C1633   1.405       .  A
C1632      C1637   1.475       .  S
C1633      C1634   1.401       .  A
C1633      F1638   1.357       .  S
C1634      C1635   1.408       .  A
C1634      H1639   1.083       .  S
C1635      C1636   1.412       .  A
C1636      F1640   1.356       .  S
C1637      C1642   1.404       .  A
C1637      C1646   1.403       .  A
C1642      C1643   1.393       .  A
C1642      F1647   1.357       .  S
C1643      C1644   1.403       .  A
C1643      H1648   1.084       .  S
C1644      C1645   1.408       .  A
C1645      C1646   1.399       .  A
C1645      F1649   1.358       .  S
C1646      H1650   1.084       .  S
C1651      C1652   1.403       .  A
C1651      C1656   1.391       .  A
C1651      H1661   1.084       .  S
C1652      C1653   1.407       .  A
C1652      C1657   1.477       .  S
C1653      C1654   1.402       .  A
C1653      F1658   1.357       .  S
C1654      C1655   1.404       .  A
C1654      H1659   1.084       .  S
C1655      C1656   1.402       .  A
C1656      F1660   1.358       .  S
C1657      C1662   1.405       .  A
C1657      C1666   1.403       .  A
C1662      C1663   1.399       .  A
C1662      F1667   1.357       .  S
C1663      C1664   1.407       .  A
C1663      H1668   1.084       .  S
C1664      C1665   1.407       .  A
C1665      C1666   1.394       .  A
C1665      F1669   1.357       .  S
C1666      H1670   1.084       .  S
C1671      C1672   1.401       .  A
C1671      C1676   1.394       .  A
C1671      H1681   1.083       .  S
C1672      C1673   1.406       .  A
C1672      C1677   1.477       .  S
C1673      C1674   1.398       .  A
C1673      F1678   1.357       .  S
C1674      C1675   1.404       .  A
C1674      H1679   1.082       .  S
C1675      C1676   1.409       .  A
C1676      F1680   1.358       .  S
C1677      C1682   1.408       .  A
C1677      C1686   1.404       .  A
C1682      C1683   1.395       .  A
C1682      F1687   1.358       .  S
C1683      C1684   1.400       .  A
C1683      H1688   1.084       .  S
C1684      C1685   1.402       .  A
C1685      C1686   1.398       .  A
C1685      F1689   1.357       .  S
C1686      H1690   1.084       .  S
C1691      C1692   1.403       .  A
C1691      C1696   1.396       .  A
C1691      H1701   1.087       .  S
C1692      C1693   1.406       .  A
C1692      C1697   1.480       .  S
C1693      C1694   1.398       .  A
C1693      F1698   1.357       .  S
C1694      C1695   1.406       .  A
C1694      H1699   1.086       .  S
C1695      C1696   1.408       .  A
C1696      F1700   1.357       .  S
C1697      C1702   1.408       .  A
C1697      C1706   1.403       .  A
C1702      C1703   1.399       .  A
C1702      F1707   1.357       .  S
C1703      C1704   1.404       .  A
C1703      H1708   1.085       .  S
C1704      C1705   1.407       .  A
C1705      C1706   1.394       .  A
C1705      F1709   1.358       .  S
C1706      H1710   1.085       .  S
C1711      C1712   1.405       .  A
C1711      C1716   1.398       .  A
C1711      H1721   1.082       .  S
C1712      C1713   1.405       .  A
C1712      C1717   1.476       .  S
C1713      C1714   1.392       .  A
C1713      F1718   1.358       .  S
C1714      C1715   1.405       .  A
C1714      H1719   1.082       .  S
C1715      C1716   1.404       .  A
C1716      F1720   1.357       .  S
C1717      C1722   1.404       .  A
C1717      C1726   1.404       .  A
C1722      C1723   1.394       .  A
C1722      F1727   1.357       .  S
C1723      C1724   1.404       .  A
C1723      H1728   1.083       .  S
C1724      C1725   1.408       .  A
C1725      C1726   1.396       .  A
C1725      F1729   1.357       .  S
C1726      H1730   1.083       .  S
C1731      C1732   1.403       .  A
C1731      C1736   1.398       .  A
C1731      H1741   1.085       .  S
C1732      C1733   1.406       .  A
C1732      C1737   1.477       .  S
C1733      C1734   1.397       .  A
C1733      F1738   1.358       .  S
C1734      C1735   1.401       .  A
C1734      H1739   1.085       .  S
C1735      C1736   1.404       .  A
C1736      F1740   1.357       .  S
C1737      C1742   1.404       .  A
C1737      C1746   1.403       .  A
C1742      C1743   1.397       .  A
C1742      F1747   1.357       .  S
C1743      C1744   1.405       .  A
C1743      H1748   1.082       .  S
C1744      C1745   1.407       .  A
C1745      C1746   1.399       .  A
C1745      F1749   1.358       .  S
C1746      H1750   1.082       .  S
C1751      C1752   1.399       .  A
C1751      C1756   1.391       .  A
C1751      H1761   1.085       .  S
C1752      C1753   1.405       .  A
C1752      C1757   1.472       .  S
C1753      C1754   1.395       .  A
C1753      F1758   1.358       .  S
C1754      C1755   1.406       .  A
C1754      H1759   1.084       .  S
C1755      C1756   1.413       .  A
C1756      F1760   1.357       .  S
C1757      C1762   1.406       .  A
C1757      C1766   1.403       .  A
C1762      C1763   1.390       .  A
C1762      F1767   1.358       .  S
C1763      C1764   1.402       .  A
C1763      H1768   1.086       .  S
C1764      C1765   1.406       .  A
C1765      C1766   1.395       .  A
C1765      F1769   1.357       .  S
C1766      H1770   1.086       .  S
C1771      C1772   1.406       .  A
C1771      C1776   1.397       .  A
C1771      H1781   1.085       .  S
C1772      C1773   1.409       .  A
C1772      C1777   1.484       .  S
C1773      C1774   1.396       .  A
C1773      F2144   1.357       .  S
C1774      C1775   1.402       .  A
C1774      H2145   1.086       .  S
C1775      C1776   1.406       .  A
C1775      C1831   1.478       .  S
C1776      F1780   1.358       .  S
C1777      C1782   1.408       .  A
C1777      C1786   1.405       .  A
F1778      C2139   1.357       .  S
H1779      C2140   1.086   1_554  S
C1782      C1783   1.396       .  A
C1782      F1787   1.357       .  S
C1783      C1784   1.404       .  A
C1783      H1788   1.084       .  S
C1784      C1785   1.407       .  A
C1785      C1786   1.396       .  A
C1785      F1789   1.357       .  S
C1786      H1790   1.084       .  S
C1791      C1792   1.401       .  A
C1791      C1796   1.397       .  A
C1791      H2167   1.085       .  S
C1792      C1793   1.401       .  A
C1792      C1797   1.466       .  S
C1793      C1794   1.392       .  A
C1793      F1798   1.358       .  S
C1794      C1795   1.405       .  A
C1794      H1799   1.085       .  S
C1795      C1796   1.408       .  A
C1796      F1800   1.357       .  S
C1797      C1802   1.403       .  A
C1797      C1806   1.400       .  A
H1801      C2157   1.085       .  S
C1802      C2169   1.399       .  A
C1802      F2173   1.357       .  S
C1803      C2168   1.401       .  A
C1803      C2170   1.407       .  A
C1803      H1808   1.083   1_556  S
C1804      C2169   1.404       .  A
C1804      C1805   1.404       .  A
C1804      C1833   1.471       .  S
C1805      C1806   1.392       .  A
C1805      F1809   1.358       .  S
C1806      H1810   1.083       .  S
F1807      C2168   1.357   1_554  S
C1811      C1812   1.402       .  A
C1811      C1816   1.403       .  A
C1811      H1821   1.084       .  S
C1812      C1813   1.402       .  A
C1812      C1817   1.474       .  S
C1813      C1814   1.395       .  A
C1813      F1818   1.358       .  S
C1814      C1815   1.405       .  A
C1814      H1819   1.084       .  S
C1815      C1816   1.412       .  A
C1816      F1820   1.357       .  S
C1817      C1822   1.403       .  A
C1817      C1826   1.403       .  A
C1822      C1823   1.392       .  A
C1822      F1827   1.358       .  S
C1823      C1824   1.403       .  A
C1823      H1828   1.084       .  S
C1824      C2191   1.408       .  A
C1824      C1835   1.479       .  S
C1825      C2190   1.410   1_554  A
C1825      C2192   1.400   1_554  A
C1825      F1829   1.357       .  S
C1826      C2191   1.404       .  A
C1826      H2196   1.083       .  S
H1830      C2192   1.083   1_554  S
C1831      C1832   1.402       .  A
C1831      C1836   1.406       .  A
C1832      C1833   1.398       .  A
C1832      H1837   1.084       .  S
C1833      C1834   1.400       .  A
C1834      C1835   1.402       .  A
C1834      H1838   1.084       .  S
C1835      C1836   1.405       .  A
C1836      H1839   1.084       .  S
C1840      C1841   1.397       .  A
C1840      C1845   1.397       .  A
C1840      C2081   1.467       .  S
C1841      C1842   1.401       .  A
C1841      H1846   1.084       .  S
C1842      C1843   1.407       .  A
C1842      C2121   1.481       .  S
C1843      C1844   1.402       .  A
C1843      H1847   1.084       .  S
C1844      C1845   1.397       .  A
C1844      C2101   1.467       .  S
C1845      H1848   1.084       .  S
C1849      C1850   1.405       .  A
C1849      C1854   1.409       .  A
C1849      C2070   1.488       .  S
C1850      C1851   1.405       .  A
C1850      H1855   1.083       .  S
C1851      C1852   1.406       .  A
C1851      C2021   1.490       .  S
C1852      C1853   1.405       .  A
C1852      H1856   1.084       .  S
C1853      C1854   1.407       .  A
C1853      C2050   1.493       .  S
C1854      H1857   1.083       .  S
C1858      C1859   1.408       .  A
C1858      C1863   1.405       .  A
C1858      C2001   1.488       .  S
C1859      C1860   1.404       .  A
C1859      H1864   1.082       .  S
C1860      C1861   1.401       .  A
C1860      C1990   1.480       .  S
C1861      C1862   1.399       .  A
C1861      H1865   1.083       .  S
C1862      C1863   1.400       .  A
C1862      C1970   1.483       .  S
C1863      H1866   1.083       .  S
N1867      N1868   1.324       .  A
N1867      N1873   1.316       .  A
N1867     Mn1896   2.216       .  S
N1868      C1875   1.356       .  A
N1869      N1871   1.315       .  A
N1869      N1870   1.321       .  A
N1869     Mn1885   2.203       .  S
N1870      C1876   1.354       .  A
N1871      N1872   1.318       .  A
N1871     Mn1896   2.193       .  S
N1872      C1876   1.352       .  A
N1873      N1874   1.317       .  A
N1873     Mn1885   2.194       .  S
N1874      C1875   1.352       .  A
C1875      C2181   1.481       .  S
C1876      C2030   1.478       .  S
N1877      N1878   1.316       .  A
N1877     Mn1907   2.181       .  S
N1878      C1886   1.348   1_655  A
N1879      N1880   1.323       .  A
N1879      N1881   1.315       .  A
N1879     Mn2617   2.212       .  S
N1880      C1887   1.356       .  A
N1881      N1882   1.319       .  A
N1882      C1887   1.352       .  A
N1883      N1884   1.318   1_565  A
N1883     Mn1885   2.192   1_565  S
Mn1885     N2611   2.202   1_545  S
C1886      C1943   1.450       .  S
C1887      C2061   1.484       .  S
N1888      N1889   1.321       .  A
N1888      N1894   1.315       .  A
N1889      C1897   1.355       .  A
N1890      N1891   1.318   1_556  A
N1890     Mn1908   2.191       .  S
N1892      N1893   1.317       .  A
N1892     Mn1896   2.191       .  S
N1894      N1895   1.319       .  A
N1894     Mn2640   2.197   1_545  S
N1895      C1897   1.353       .  A
C1897      C2150   1.481       .  S
C1898      C1931   1.454   1_655  S
N1899      N1900   1.317       .  A
N1899      N1905   1.314       .  A
N1899     Mn1907   2.182       .  S
N1900      C1910   1.351       .  A
N1901      N1902   1.320       .  A
N1901      N1903   1.315       .  A
N1901     Mn1908   2.200       .  S
N1902      C1911   1.353       .  A
N1903      N1904   1.324       .  A
N1903     Mn1907   2.214       .  S
N1904      C1911   1.356       .  A
N1905      N1906   1.322       .  A
N1905     Mn1908   2.212       .  S
N1906      C1910   1.356       .  A
Mn1907    Cl1909   2.544   1_655  S
Mn1908     N2626   2.197       .  S
Mn1908    Cl1909   2.546   1_655  S
C1910      C2161   1.476       .  S
C1911      C2041   1.482       .  S
N1912      N1913   1.319       .  A
N1912      N1918   1.314       .  A
N1912     Mn1941   2.188       .  S
N1913      C1920   1.352       .  A
N1914      N1916   1.315       .  A
N1914      N1915   1.319       .  A
N1914     Mn1930   2.193       .  S
N1915      C1921   1.352       .  A
N1916      N1917   1.319       .  A
N1916     Mn1941   2.197       .  S
N1917      C1921   1.353       .  A
N1918      N1919   1.315       .  A
N1918     Mn1930   2.185       .  S
N1919      C1920   1.351       .  A
C1920      C2130   1.468       .  S
C1921      C1961   1.475       .  S
N1922      N1923   1.319       .  A
N1922     Mn1952   2.199       .  S
N1923      C1931   1.352   1_655  A
N1924      N1925   1.318       .  A
N1924      N1926   1.313       .  A
N1924     Mn2662   2.190       .  S
N1925      C1932   1.352       .  A
N1926      N1927   1.318       .  A
N1927      C1932   1.352       .  A
N1928      N1929   1.318       .  A
N1928     Mn1930   2.188       .  S
Mn1930     N2656   2.191   1_545  S
C1932      C2010   1.471       .  S
N1933      N1934   1.317       .  A
N1933      N1939   1.314       .  A
N1934      C1942   1.352       .  A
N1935      N1936   1.318       .  A
N1935     Mn1953   2.189       .  S
N1936      C1943   1.350   1_655  A
N1937      N1938   1.319       .  A
N1937     Mn1941   2.192       .  S
N1939      N1940   1.318       .  A
N1939     Mn2685   2.190   1_545  S
N1940      C1942   1.352       .  A
C1942      C2090   1.470       .  S
N1944      N1945   1.319       .  A
N1944      N1950   1.315       .  A
N1944     Mn1952   2.198       .  S
N1945      C1955   1.353       .  A
N1946      N1947   1.316       .  A
N1946      N1948   1.314       .  A
N1946     Mn1953   2.185       .  S
N1947      C1956   1.351       .  A
N1948      N1949   1.320       .  A
N1948     Mn1952   2.196       .  S
N1949      C1956   1.354       .  A
N1950      N1951   1.320       .  A
N1950     Mn1953   2.200       .  S
N1951      C1955   1.353       .  A
Mn1952    Cl1954   2.545   1_655  S
Mn1953     N2671   2.196       .  S
Mn1953    Cl1954   2.537   1_655  S
C1955      C2110   1.475       .  S
C1956      C1981   1.474       .  S
C1957      C1958   1.403       .  A
C1957      C1962   1.396       .  A
C1957      H1967   1.085       .  S
C1958      C1959   1.406       .  A
C1958      C1963   1.477       .  S
C1959      C1960   1.395       .  A
C1959      F1964   1.358       .  S
C1960      C1961   1.404       .  A
C1960      H1965   1.084       .  S
C1961      C1962   1.407       .  A
C1962      F1966   1.357       .  S
C1963      C1968   1.406       .  A
C1963      C1972   1.401       .  A
C1968      C1969   1.396       .  A
C1968      F1973   1.357       .  S
C1969      C1970   1.405       .  A
C1969      H1974   1.084       .  S
C1970      C1971   1.410       .  A
C1971      C1972   1.393       .  A
C1971      F1975   1.357       .  S
C1972      H1976   1.084       .  S
C1977      C1978   1.402       .  A
C1977      C1982   1.399       .  A
C1977      H1987   1.084       .  S
C1978      C1979   1.401       .  A
C1978      C1983   1.468       .  S
C1979      C1980   1.391       .  A
C1979      F1984   1.358       .  S
C1980      C1981   1.404       .  A
C1980      H1985   1.083       .  S
C1981      C1982   1.409       .  A
C1982      F1986   1.357       .  S
C1983      C1988   1.402       .  A
C1983      C1992   1.400       .  A
C1988      C1989   1.399       .  A
C1988      F1993   1.357       .  S
C1989      C1990   1.407       .  A
C1989      H1994   1.083       .  S
C1990      C1991   1.408       .  A
C1991      C1992   1.391       .  A
C1991      F1995   1.358       .  S
C1992      H1996   1.083       .  S
C1997      C1998   1.399       .  A
C1997      C2002   1.390       .  A
C1997      H2007   1.083       .  S
C1998      C1999   1.406       .  A
C1998      C2003   1.476       .  S
C1999      C2000   1.399       .  A
C1999      F2004   1.358       .  S
C2000      C2001   1.408       .  A
C2000      H2005   1.083       .  S
C2001      C2002   1.412       .  A
C2002      F2006   1.356       .  S
C2003      C2008   1.406       .  A
C2003      C2012   1.403       .  A
C2008      C2009   1.394       .  A
C2008      F2013   1.358       .  S
C2009      C2010   1.403       .  A
C2009      H2014   1.084       .  S
C2010      C2011   1.406       .  A
C2011      C2012   1.396       .  A
C2011      F2015   1.357       .  S
C2012      H2016   1.084       .  S
C2017      C2018   1.398       .  A
C2017      C2022   1.392       .  A
C2017      H2027   1.085       .  S
C2018      C2019   1.403       .  A
C2018      C2023   1.471       .  S
C2019      C2020   1.402       .  A
C2019      F2024   1.357       .  S
C2020      C2021   1.410       .  A
C2020      H2025   1.084       .  S
C2021      C2022   1.411       .  A
C2022      F2026   1.357       .  S
C2023      C2028   1.403       .  A
C2023      C2032   1.400       .  A
C2028      C2029   1.398       .  A
C2028      F2033   1.357       .  S
C2029      C2030   1.406       .  A
C2029      H2034   1.084       .  S
C2030      C2031   1.409       .  A
C2031      C2032   1.396       .  A
C2031      F2035   1.357       .  S
C2032      H2036   1.084       .  S
C2037      C2038   1.402       .  A
C2037      C2042   1.400       .  A
C2037      H2047   1.082       .  S
C2038      C2039   1.407       .  A
C2038      C2043   1.483       .  S
C2039      C2040   1.403       .  A
C2039      F2044   1.358       .  S
C2040      C2041   1.405       .  A
C2040      H2045   1.082       .  S
C2041      C2042   1.408       .  A
C2042      F2046   1.357       .  S
C2043      C2048   1.404       .  A
C2043      C2052   1.404       .  A
C2048      C2049   1.398       .  A
C2048      F2053   1.358       .  S
C2049      C2050   1.408       .  A
C2049      H2054   1.084       .  S
C2050      C2051   1.410       .  A
C2051      C2052   1.404       .  A
C2051      F2055   1.357       .  S
C2052      H2056   1.084       .  S
C2057      C2058   1.404       .  A
C2057      C2062   1.399       .  A
C2057      H2067   1.087       .  S
C2058      C2059   1.405       .  A
C2058      C2063   1.483       .  S
C2059      C2060   1.399       .  A
C2059      F2064   1.357       .  S
C2060      C2061   1.407       .  A
C2060      H2065   1.086       .  S
C2061      C2062   1.408       .  A
C2062      F2066   1.357       .  S
C2063      C2068   1.407       .  A
C2063      C2072   1.403       .  A
C2068      C2069   1.401       .  A
C2068      F2073   1.358       .  S
C2069      C2070   1.407       .  A
C2069      H2074   1.085       .  S
C2070      C2071   1.408       .  A
C2071      C2072   1.398       .  A
C2071      F2075   1.357       .  S
C2072      H2076   1.085       .  S
C2077      C2078   1.405       .  A
C2077      C2082   1.395       .  A
C2077      H2087   1.082       .  S
C2078      C2079   1.403       .  A
C2078      C2083   1.470       .  S
C2079      C2080   1.390       .  A
C2079      F2084   1.358       .  S
C2080      C2081   1.403       .  A
C2080      H2085   1.082       .  S
C2081      C2082   1.402       .  A
C2082      F2086   1.357       .  S
C2083      C2088   1.403       .  A
C2083      C2092   1.402       .  A
C2088      C2089   1.393       .  A
C2088      F2093   1.358       .  S
C2089      C2090   1.404       .  A
C2089      H2094   1.083       .  S
C2090      C2091   1.407       .  A
C2091      C2092   1.393       .  A
C2091      F2095   1.357       .  S
C2092      H2096   1.083       .  S
C2097      C2098   1.403       .  A
C2097      C2102   1.397       .  A
C2097      H2107   1.085       .  S
C2098      C2099   1.406       .  A
C2098      C2103   1.472       .  S
C2099      C2100   1.394       .  A
C2099      F2104   1.358       .  S
C2100      C2101   1.400       .  A
C2100      H2105   1.085       .  S
C2101      C2102   1.403       .  A
C2102      F2106   1.357       .  S
C2103      C2108   1.403       .  A
C2103      C2112   1.402       .  A
C2108      C2109   1.396       .  A
C2108      F2113   1.358       .  S
C2109      C2110   1.405       .  A
C2109      H2114   1.082       .  S
C2110      C2111   1.407       .  A
C2111      C2112   1.396       .  A
C2111      F2115   1.358       .  S
C2112      H2116   1.082       .  S
C2117      C2118   1.401       .  A
C2117      C2122   1.390       .  A
C2117      H2127   1.085       .  S
C2118      C2119   1.406       .  A
C2118      C2123   1.476       .  S
C2119      C2120   1.397       .  A
C2119      F2124   1.357       .  S
C2120      C2121   1.405       .  A
C2120      H2125   1.084       .  S
C2121      C2122   1.411       .  A
C2122      F2126   1.358       .  S
C2123      C2128   1.406       .  A
C2123      C2132   1.404       .  A
C2128      C2129   1.388       .  A
C2128      F2133   1.358       .  S
C2129      C2130   1.401       .  A
C2129      H2134   1.086       .  S
C2130      C2131   1.407       .  A
C2131      C2132   1.398       .  A
C2131      F2135   1.357       .  S
C2132      H2136   1.086       .  S
C2137      C2138   1.405       .  A
C2137      C2142   1.401       .  A
C2137      H2147   1.085       .  S
C2138      C2139   1.406       .  A
C2138      C2143   1.481       .  S
C2139      C2140   1.394       .  A
C2140      C2141   1.402       .  A
C2141      C2142   1.407       .  A
C2142      F2146   1.357       .  S
C2143      C2148   1.405       .  A
C2143      C2152   1.404       .  A
C2148      C2149   1.398       .  A
C2148      F2153   1.357       .  S
C2149      C2150   1.407       .  A
C2149      H2154   1.084       .  S
C2150      C2151   1.408       .  A
C2151      C2152   1.398       .  A
C2151      F2155   1.357       .  S
C2152      H2156   1.084       .  S
C2157      C2158   1.401       .  A
C2157      C2162   1.396       .  A
C2158      C2159   1.402       .  A
C2158      C2163   1.471       .  S
C2159      C2160   1.398       .  A
C2159      F2164   1.358       .  S
C2160      C2161   1.407       .  A
C2160      H2165   1.084       .  S
C2161      C2162   1.406       .  A
C2162      F2166   1.357       .  S
C2163      C2168   1.403       .  A
C2163      C2172   1.400       .  A
C2169      H2174   1.083       .  S
C2170      C2171   1.407       .  A
C2171      C2172   1.392       .  A
C2171      F2175   1.358       .  S
C2172      H2176   1.083       .  S
C2177      C2178   1.404       .  A
C2177      C2182   1.402       .  A
C2177      H2187   1.084   1_556  S
C2178      C2179   1.402       .  A
C2178      C2183   1.475       .  S
C2179      C2180   1.394       .  A
C2179      F2184   1.358       .  S
C2180      C2181   1.405       .  A
C2180      H2185   1.084       .  S
C2181      C2182   1.409       .  A
C2182      F2186   1.357       .  S
C2183      C2188   1.402       .  A
C2183      C2192   1.403       .  A
C2188      C2189   1.395       .  A
C2188      F2193   1.358       .  S
C2189      C2190   1.409       .  A
C2189      H2194   1.083       .  S
C2191      F2195   1.357       .  S
C2197      C2198   1.401       .  A
C2197      C2202   1.403       .  A
C2197      C2873   1.478       .  S
C2198      C2199   1.398       .  A
C2198      H2203   1.084       .  S
C2199      C2200   1.403       .  A
C2199      C2902   1.472       .  S
C2200      C2201   1.406       .  A
C2200      H2204   1.084       .  S
C2201      C2202   1.406       .  A
C2201      C2922   1.484       .  S
C2202      H2205   1.083       .  S
C2206      C2207   1.395       .  A
C2206      C2211   1.398       .  A
C2206      C2447   1.467       .  S
C2207      C2208   1.399       .  A
C2207      H2212   1.084       .  S
C2208      C2209   1.406       .  A
C2208      C2487   1.479       .  S
C2209      C2210   1.403       .  A
C2209      H2213   1.084       .  S
C2210      C2211   1.398       .  A
C2210      C2467   1.468       .  S
C2211      H2214   1.083       .  S
C2215      C2216   1.403       .  A
C2215      C2220   1.405       .  A
C2215      C2436   1.477       .  S
C2216      C2217   1.399       .  A
C2216      H2221   1.084       .  S
C2217      C2218   1.403       .  A
C2217      C2387   1.476       .  S
C2218      C2219   1.402       .  A
C2218      H2222   1.085       .  S
C2219      C2220   1.405       .  A
C2219      C2416   1.481       .  S
C2220      H2223   1.084       .  S
C2224      C2225   1.405       .  A
C2224      C2229   1.405       .  A
C2224      C2367   1.485       .  S
C2225      C2226   1.399       .  A
C2225      H2230   1.083       .  S
C2226      C2227   1.404       .  A
C2226      C2356   1.476       .  S
C2227      C2228   1.406       .  A
C2227      H2231   1.084       .  S
C2228      C2229   1.404       .  A
C2228      C2336   1.492       .  S
C2229      H2232   1.083       .  S
N2233      N2234   1.322       .  A
N2233      N2239   1.314       .  A
N2233     Mn2262   2.201       .  S
N2234      C2241   1.354       .  A
N2235      N2237   1.314       .  A
N2235      N2236   1.321       .  A
N2235     Mn2251   2.199       .  S
N2236      C2242   1.354       .  A
N2237      N2238   1.318       .  A
N2237     Mn2262   2.192       .  S
N2238      C2242   1.352       .  A
N2239      N2240   1.317       .  A
N2239     Mn2251   2.190       .  S
N2240      C2241   1.352       .  A
C2241      C2547   1.478       .  S
C2242      C2396   1.477       .  S
N2243      N2244   1.318       .  A
N2243     Mn2273   2.191       .  S
N2244      C2252   1.350   1_655  A
N2245      N2246   1.318       .  A
N2245      N2247   1.314       .  A
N2246      C2253   1.352       .  A
N2247      N2248   1.320       .  A
N2248      C2253   1.355       .  A
N2249      N2250   1.319       .  A
N2249     Mn2251   2.184       .  S
C2252      C2309   1.458   1_455  S
C2253      C2427   1.477       .  S
N2254      N2255   1.320       .  A
N2254      N2260   1.314       .  A
N2255      C2263   1.353       .  A
N2256      N2257   1.319       .  A
N2256     Mn2274   2.193       .  S
N2257      C2630   1.351   1_565  A
N2258      N2259   1.317       .  A
N2258     Mn2262   2.182       .  S
N2260      N2261   1.321       .  A
N2261      C2263   1.355       .  A
C2263      C2516   1.482       .  S
C2264      C2297   1.446       .  S
C2264      N2623   1.349   1_544  A
N2265      N2266   1.319       .  A
N2265      N2271   1.315       .  A
N2265     Mn2273   2.192       .  S
N2266      C2276   1.353       .  A
N2267      N2268   1.316       .  A
N2267      N2269   1.315       .  A
N2267     Mn2274   2.190       .  S
N2268      C2277   1.351       .  A
N2269      N2270   1.324       .  A
N2269     Mn2273   2.216       .  S
N2270      C2277   1.357       .  A
N2271      N2272   1.320       .  A
N2271     Mn2274   2.200       .  S
N2272      C2276   1.353       .  A
Mn2273    Cl2275   2.548       .  S
Mn2274    Cl2275   2.539       .  S
C2276      C2527   1.477       .  S
C2277      C2407   1.483       .  S
N2278      N2279   1.320       .  A
N2278      N2284   1.313       .  A
N2278     Mn2307   2.187       .  S
N2279      C2286   1.353       .  A
N2280      N2282   1.315       .  A
N2280      N2281   1.321       .  A
N2280     Mn2296   2.202       .  S
N2281      C2287   1.354       .  A
N2282      N2283   1.320       .  A
N2282     Mn2307   2.206       .  S
N2283      C2287   1.354       .  A
N2284      N2285   1.313       .  A
N2284     Mn2296   2.175       .  S
N2285      C2286   1.349       .  A
C2286      C2496   1.465       .  S
C2287      C2327   1.482       .  S
N2288      N2289   1.318       .  A
N2288     Mn2318   2.185       .  S
N2289      C2297   1.350   1_565  A
N2290      N2291   1.318       .  A
N2290      N2292   1.313       .  A
N2291      C2298   1.351       .  A
N2292      N2293   1.318       .  A
N2293      C2298   1.352       .  A
N2294      N2295   1.317       .  A
N2294     Mn2296   2.185       .  S
C2298      C2376   1.468       .  S
N2299      N2300   1.316       .  A
N2299      N2305   1.315       .  A
N2300      C2308   1.351       .  A
N2301      N2302   1.319       .  A
N2301     Mn2319   2.193       .  S
N2302      C2309   1.351       .  A
N2303      N2304   1.320       .  A
N2303     Mn2307   2.197       .  S
N2305      N2306   1.318       .  A
N2306      C2308   1.351       .  A
C2308      C2456   1.467       .  S
N2310      N2311   1.319       .  A
N2310      N2316   1.314       .  A
N2310     Mn2318   2.193       .  S
N2311      C2321   1.353       .  A
N2312      N2313   1.318       .  A
N2312      N2314   1.314       .  A
N2312     Mn2319   2.198       .  S
N2313      C2322   1.353       .  A
N2314      N2315   1.321       .  A
N2314     Mn2318   2.197       .  S
N2315      C2322   1.353       .  A
N2316      N2317   1.318       .  A
N2316     Mn2319   2.195       .  S
N2317      C2321   1.352       .  A
Mn2318    Cl2320   2.549   1_565  S
Mn2319    Cl2320   2.536   1_565  S
C2321      C2476   1.473       .  S
C2322      C2347   1.479       .  S
C2323      C2324   1.404       .  A
C2323      C2328   1.400       .  A
C2323      H2333   1.085       .  S
C2324      C2325   1.407       .  A
C2324      C2329   1.484       .  S
C2325      C2326   1.397       .  A
C2325      F2330   1.358       .  S
C2326      C2327   1.404       .  A
C2326      H2331   1.084       .  S
C2327      C2328   1.409       .  A
C2328      F2332   1.357       .  S
C2329      C2334   1.406       .  A
C2329      C2338   1.402       .  A
C2334      C2335   1.399       .  A
C2334      F2339   1.357       .  S
C2335      C2336   1.407       .  A
C2335      H2340   1.083       .  S
C2336      C2337   1.413       .  A
C2337      C2338   1.396       .  A
C2337      F2341   1.356       .  S
C2338      H2342   1.084       .  S
C2343      C2344   1.404       .  A
C2343      C2348   1.401       .  A
C2343      H2353   1.083       .  S
C2344      C2345   1.404       .  A
C2344      C2349   1.479       .  S
C2345      C2346   1.393       .  A
C2345      F2350   1.358       .  S
C2346      C2347   1.404       .  A
C2346      H2351   1.083       .  S
C2347      C2348   1.410       .  A
C2348      F2352   1.357       .  S
C2349      C2354   1.407       .  A
C2349      C2358   1.403       .  A
C2354      C2355   1.402       .  A
C2354      F2359   1.358       .  S
C2355      C2356   1.406       .  A
C2355      H2360   1.083       .  S
C2356      C2357   1.403       .  A
C2357      C2358   1.391       .  A
C2357      F2361   1.357       .  S
C2358      H2362   1.083       .  S
C2363      C2364   1.399       .  A
C2363      C2368   1.391       .  A
C2363      H2373   1.083       .  S
C2364      C2365   1.404       .  A
C2364      C2369   1.472       .  S
C2365      C2366   1.397       .  A
C2365      F2370   1.358       .  S
C2366      C2367   1.407       .  A
C2366      H2371   1.083       .  S
C2367      C2368   1.411       .  A
C2368      F2372   1.357       .  S
C2369      C2374   1.405       .  A
C2369      C2378   1.402       .  A
C2374      C2375   1.393       .  A
C2374      F2379   1.358       .  S
C2375      C2376   1.403       .  A
C2375      H2380   1.084       .  S
C2376      C2377   1.406       .  A
C2377      C2378   1.394       .  A
C2377      F2381   1.358       .  S
C2378      H2382   1.084       .  S
C2383      C2384   1.399       .  A
C2383      C2388   1.390       .  A
C2383      H2393   1.085       .  S
C2384      C2385   1.404       .  A
C2384      C2389   1.468       .  S
C2385      C2386   1.402       .  A
C2385      F2390   1.357       .  S
C2386      C2387   1.407       .  A
C2386      H2391   1.084       .  S
C2387      C2388   1.405       .  A
C2388      F2392   1.358       .  S
C2389      C2394   1.402       .  A
C2389      C2398   1.400       .  A
C2394      C2395   1.398       .  A
C2394      F2399   1.358       .  S
C2395      C2396   1.406       .  A
C2395      H2400   1.083       .  S
C2396      C2397   1.409       .  A
C2397      C2398   1.396       .  A
C2397      F2401   1.357       .  S
C2398      H2402   1.084       .  S
C2403      C2404   1.400       .  A
C2403      C2408   1.393       .  A
C2403      H2413   1.083       .  S
C2404      C2405   1.405       .  A
C2404      C2409   1.478       .  S
C2405      C2406   1.403       .  A
C2405      F2410   1.357       .  S
C2406      C2407   1.407       .  A
C2406      H2411   1.082       .  S
C2407      C2408   1.410       .  A
C2408      F2412   1.357       .  S
C2409      C2414   1.405       .  A
C2409      C2418   1.403       .  A
C2414      C2415   1.395       .  A
C2414      F2419   1.358       .  S
C2415      C2416   1.404       .  A
C2415      H2420   1.084       .  S
C2416      C2417   1.408       .  A
C2417      C2418   1.402       .  A
C2417      F2421   1.357       .  S
C2418      H2422   1.084       .  S
C2423      C2424   1.401       .  A
C2423      C2428   1.397       .  A
C2423      H2433   1.087       .  S
C2424      C2425   1.405       .  A
C2424      C2429   1.476       .  S
C2425      C2426   1.396       .  A
C2425      F2430   1.357       .  S
C2426      C2427   1.404       .  A
C2426      H2431   1.086       .  S
C2427      C2428   1.410       .  A
C2428      F2432   1.357       .  S
C2429      C2434   1.406       .  A
C2429      C2438   1.403       .  A
C2434      C2435   1.395       .  A
C2434      F2439   1.357       .  S
C2435      C2436   1.403       .  A
C2435      H2440   1.085       .  S
C2436      C2437   1.408       .  A
C2437      C2438   1.397       .  A
C2437      F2441   1.358       .  S
C2438      H2442   1.085       .  S
C2443      C2444   1.404       .  A
C2443      C2448   1.393       .  A
C2443      H2453   1.082       .  S
C2444      C2445   1.404       .  A
C2444      C2449   1.469       .  S
C2445      C2446   1.390       .  A
C2445      F2450   1.358       .  S
C2446      C2447   1.404       .  A
C2446      H2451   1.082       .  S
C2447      C2448   1.402       .  A
C2448      F2452   1.357       .  S
C2449      C2454   1.403       .  A
C2449      C2458   1.403       .  A
C2454      C2455   1.390       .  A
C2454      F2459   1.358       .  S
C2455      C2456   1.403       .  A
C2455      H2460   1.083       .  S
C2456      C2457   1.407       .  A
C2457      C2458   1.394       .  A
C2457      F2461   1.358       .  S
C2458      H2462   1.083       .  S
C2463      C2464   1.402       .  A
C2463      C2468   1.396       .  A
C2463      H2473   1.085       .  S
C2464      C2465   1.405       .  A
C2464      C2469   1.469       .  S
C2465      C2466   1.394       .  A
C2465      F2470   1.358       .  S
C2466      C2467   1.401       .  A
C2466      H2471   1.085       .  S
C2467      C2468   1.405       .  A
C2468      F2472   1.357       .  S
C2469      C2474   1.402       .  A
C2469      C2478   1.402       .  A
C2474      C2475   1.394       .  A
C2474      F2479   1.358       .  S
C2475      C2476   1.404       .  A
C2475      H2480   1.082       .  S
C2476      C2477   1.408       .  A
C2477      C2478   1.397       .  A
C2477      F2481   1.358       .  S
C2478      H2482   1.082       .  S
C2483      C2484   1.400       .  A
C2483      C2488   1.388       .  A
C2483      H2493   1.085       .  S
C2484      C2485   1.405       .  A
C2484      C2489   1.470       .  S
C2485      C2486   1.395       .  A
C2485      F2490   1.357       .  S
C2486      C2487   1.405       .  A
C2486      H2491   1.084       .  S
C2487      C2488   1.411       .  A
C2488      F2492   1.358       .  S
C2489      C2494   1.405       .  A
C2489      C2498   1.403       .  A
C2494      C2495   1.386       .  A
C2494      F2499   1.358       .  S
C2495      C2496   1.401       .  A
C2495      H2500   1.086       .  S
C2496      C2497   1.406       .  A
C2497      C2498   1.397       .  A
C2497      F2501   1.357       .  S
C2498      H2502   1.086       .  S
C2503      C2504   1.405       .  A
C2503      C2508   1.396       .  A
C2503      H2513   1.085       .  S
C2504      C2505   1.409       .  A
C2504      C2509   1.485       .  S
C2505      C2506   1.399       .  A
C2505      F2876   1.357       .  S
C2506      C2507   1.403       .  A
C2506      H2877   1.086       .  S
C2507      C2508   1.405       .  A
C2507      C2563   1.478       .  S
C2508      F2512   1.358       .  S
C2509      C2514   1.407       .  A
C2509      C2518   1.404       .  A
F2510      C2871   1.357       .  S
H2511      C2872   1.086   1_554  S
C2514      C2515   1.397       .  A
C2514      F2519   1.357       .  S
C2515      C2516   1.404       .  A
C2515      H2520   1.084       .  S
C2516      C2517   1.410       .  A
C2517      C2518   1.399       .  A
C2517      F2521   1.357       .  S
C2518      H2522   1.084       .  S
C2523      C2524   1.401       .  A
C2523      C2528   1.397       .  A
C2523      H2899   1.085       .  S
C2524      C2525   1.403       .  A
C2524      C2529   1.472       .  S
C2525      C2526   1.396       .  A
C2525      F2530   1.358       .  S
C2526      C2527   1.405       .  A
C2526      H2531   1.085       .  S
C2527      C2528   1.409       .  A
C2528      F2532   1.357       .  S
C2529      C2534   1.405       .  A
C2529      C2538   1.402       .  A
H2533      C2889   1.085       .  S
C2534      C2901   1.399       .  A
C2534      F2905   1.357       .  S
C2535      C2900   1.399       .  A
C2535      C2902   1.402       .  A
C2535      H2540   1.082   1_556  S
C2536      C2901   1.403       .  A
C2536      C2537   1.404       .  A
C2536      C2565   1.471       .  S
C2537      C2538   1.393       .  A
C2537      F2541   1.358       .  S
C2538      H2542   1.083       .  S
F2539      C2900   1.357   1_554  S
C2543      C2544   1.403       .  A
C2543      C2548   1.403       .  A
C2543      H2553   1.084       .  S
C2544      C2545   1.403       .  A
C2544      C2549   1.475       .  S
C2545      C2546   1.391       .  A
C2545      F2550   1.358       .  S
C2546      C2547   1.404       .  A
C2546      H2551   1.084       .  S
C2547      C2548   1.410       .  A
C2548      F2552   1.357       .  S
C2549      C2554   1.405       .  A
C2549      C2558   1.404       .  A
C2554      C2555   1.391       .  A
C2554      F2559   1.358       .  S
C2555      C2556   1.402       .  A
C2555      H2560   1.084       .  S
C2556      C2923   1.408       .  A
C2556      C2567   1.478       .  S
C2557      C2922   1.409       .  A
C2557      C2924   1.401       .  A
C2557      F2561   1.357   1_556  S
C2558      C2923   1.403       .  A
C2558      H2928   1.083       .  S
H2562      C2924   1.083   1_554  S
C2563      C2564   1.402       .  A
C2563      C2568   1.406       .  A
C2564      C2565   1.400       .  A
C2564      H2569   1.084       .  S
C2565      C2566   1.400       .  A
C2566      C2567   1.403       .  A
C2566      H2570   1.085       .  S
C2567      C2568   1.405       .  A
C2568      H2571   1.084       .  S
C2572      C2573   1.399       .  A
C2572      C2577   1.400       .  A
C2572      C2813   1.471       .  S
C2573      C2574   1.401       .  A
C2573      H2578   1.084       .  S
C2574      C2575   1.405       .  A
C2574      C2853   1.481       .  S
C2575      C2576   1.400       .  A
C2575      H2579   1.084       .  S
C2576      C2577   1.399       .  A
C2576      C2833   1.467       .  S
C2577      H2580   1.083       .  S
C2581      C2582   1.406       .  A
C2581      C2586   1.402       .  A
C2581      C2802   1.481       .  S
C2582      C2583   1.409       .  A
C2582      H2587   1.082       .  S
C2583      C2584   1.409       .  A
C2583      C2753   1.493       .  S
C2584      C2585   1.401       .  A
C2584      H2588   1.084       .  S
C2585      C2586   1.399       .  A
C2585      C2782   1.478       .  S
C2586      H2589   1.084       .  S
C2590      C2591   1.407       .  A
C2590      C2595   1.406       .  A
C2590      C2733   1.490       .  S
C2591      C2592   1.403       .  A
C2591      H2596   1.083       .  S
C2592      C2593   1.403       .  A
C2592      C2722   1.479       .  S
C2593      C2594   1.403       .  A
C2593      H2597   1.084       .  S
C2594      C2595   1.403       .  A
C2594      C2702   1.488       .  S
C2595      H2598   1.083       .  S
N2599      N2600   1.323       .  A
N2599      N2605   1.316       .  A
N2599     Mn2628   2.213       .  S
N2600      C2607   1.355       .  A
N2601      N2603   1.315       .  A
N2601      N2602   1.321       .  A
N2601     Mn2617   2.211       .  S
N2602      C2608   1.354       .  A
N2603      N2604   1.321       .  A
N2603     Mn2628   2.199       .  S
N2604      C2608   1.354       .  A
N2605      N2606   1.320       .  A
N2605     Mn2617   2.203       .  S
N2606      C2607   1.354       .  A
C2607      C2913   1.482       .  S
C2608      C2762   1.481       .  S
N2609      N2610   1.317       .  A
N2609     Mn2639   2.189       .  S
N2610      C2618   1.350   1_655  A
N2611      N2612   1.321       .  A
N2611      N2613   1.315       .  A
N2612      C2619   1.354       .  A
N2613      N2614   1.319       .  A
N2614      C2619   1.353       .  A
N2615      N2616   1.319       .  A
N2615     Mn2617   2.197       .  S
C2618      C2675   1.453       .  S
C2619      C2793   1.481       .  S
N2620      N2621   1.320       .  A
N2620      N2626   1.317       .  A
N2621      C2629   1.354       .  A
N2622      N2623   1.317       .  A
N2622     Mn2640   2.182       .  S
N2624      N2625   1.316       .  A
N2624     Mn2628   2.182       .  S
N2626      N2627   1.320       .  A
N2627      C2629   1.352       .  A
C2629      C2882   1.480       .  S
C2630      C2663   1.456   1_645  S
N2631      N2632   1.316       .  A
N2631      N2637   1.314       .  A
N2631     Mn2639   2.178       .  S
N2632      C2642   1.349       .  A
N2633      N2634   1.315       .  A
N2633      N2635   1.315       .  A
N2633     Mn2640   2.181       .  S
N2634      C2643   1.348       .  A
N2635      N2636   1.326       .  A
N2635     Mn2639   2.223       .  S
N2636      C2643   1.358       .  A
N2637      N2638   1.322       .  A
N2637     Mn2640   2.206       .  S
N2638      C2642   1.355       .  A
Mn2639    Cl2641   2.547       .  S
Mn2640    Cl2641   2.539       .  S
C2642      C2893   1.469       .  S
C2643      C2773   1.477       .  S
N2644      N2645   1.319       .  A
N2644      N2650   1.314       .  A
N2644     Mn2673   2.187       .  S
N2645      C2652   1.353       .  A
N2646      N2648   1.314       .  A
N2646      N2647   1.319       .  A
N2646     Mn2662   2.192       .  S
N2647      C2653   1.352       .  A
N2648      N2649   1.320       .  A
N2648     Mn2673   2.197       .  S
N2649      C2653   1.354       .  A
N2650      N2651   1.314       .  A
N2650     Mn2662   2.179       .  S
N2651      C2652   1.350       .  A
C2652      C2862   1.466       .  S
C2653      C2693   1.475       .  S
N2654      N2655   1.318       .  A
N2654     Mn2684   2.192       .  S
N2655      C2663   1.350   1_655  A
N2656      N2657   1.319       .  A
N2656      N2658   1.315       .  A
N2657      C2664   1.351       .  A
N2658      N2659   1.321       .  A
N2659      C2664   1.355       .  A
N2660      N2661   1.316       .  A
N2660     Mn2662   2.182       .  S
C2664      C2742   1.475       .  S
N2665      N2666   1.317       .  A
N2665      N2671   1.315       .  A
N2666      C2674   1.352       .  A
N2667      N2668   1.317       .  A
N2667     Mn2685   2.186       .  S
N2668      C2675   1.349   1_655  A
N2669      N2670   1.319       .  A
N2669     Mn2673   2.190       .  S
N2671      N2672   1.319       .  A
N2672      C2674   1.353       .  A
C2674      C2822   1.472       .  S
N2676      N2677   1.320       .  A
N2676      N2682   1.315       .  A
N2676     Mn2684   2.200       .  S
N2677      C2687   1.353       .  A
N2678      N2679   1.317       .  A
N2678      N2680   1.314       .  A
N2678     Mn2685   2.186       .  S
N2679      C2688   1.351       .  A
N2680      N2681   1.321       .  A
N2680     Mn2684   2.205       .  S
N2681      C2688   1.355       .  A
N2682      N2683   1.318       .  A
N2682     Mn2685   2.193       .  S
N2683      C2687   1.352       .  A
Mn2684    Cl2686   2.545   1_655  S
Mn2685    Cl2686   2.536   1_655  S
C2687      C2842   1.475       .  S
C2688      C2713   1.478       .  S
C2689      C2690   1.404       .  A
C2689      C2694   1.398       .  A
C2689      H2699   1.085       .  S
C2690      C2691   1.408       .  A
C2690      C2695   1.482       .  S
C2691      C2692   1.395       .  A
C2691      F2696   1.358       .  S
C2692      C2693   1.403       .  A
C2692      H2697   1.084       .  S
C2693      C2694   1.407       .  A
C2694      F2698   1.357       .  S
C2695      C2700   1.407       .  A
C2695      C2704   1.402       .  A
C2700      C2701   1.399       .  A
C2700      F2705   1.357       .  S
C2701      C2702   1.407       .  A
C2701      H2706   1.084       .  S
C2702      C2703   1.411       .  A
C2703      C2704   1.394       .  A
C2703      F2707   1.357       .  S
C2704      H2708   1.084       .  S
C2709      C2710   1.404       .  A
C2709      C2714   1.400       .  A
C2709      H2719   1.083       .  S
C2710      C2711   1.406       .  A
C2710      C2715   1.480       .  S
C2711      C2712   1.393       .  A
C2711      F2716   1.358       .  S
C2712      C2713   1.405       .  A
C2712      H2717   1.083       .  S
C2713      C2714   1.408       .  A
C2714      F2718   1.357       .  S
C2715      C2720   1.407       .  A
C2715      C2724   1.402       .  A
C2720      C2721   1.403       .  A
C2720      F2725   1.358       .  S
C2721      C2722   1.406       .  A
C2721      H2726   1.083       .  S
C2722      C2723   1.405       .  A
C2723      C2724   1.391       .  A
C2723      F2727   1.358       .  S
C2724      H2728   1.083       .  S
C2729      C2730   1.399       .  A
C2729      C2734   1.393       .  A
C2729      H2739   1.083       .  S
C2730      C2731   1.404       .  A
C2730      C2735   1.475       .  S
C2731      C2732   1.401       .  A
C2731      F2736   1.357       .  S
C2732      C2733   1.409       .  A
C2732      H2737   1.083       .  S
C2733      C2734   1.413       .  A
C2734      F2738   1.357       .  S
C2735      C2740   1.405       .  A
C2735      C2744   1.402       .  A
C2740      C2741   1.396       .  A
C2740      F2745   1.357       .  S
C2741      C2742   1.403       .  A
C2741      H2746   1.084       .  S
C2742      C2743   1.408       .  A
C2743      C2744   1.398       .  A
C2743      F2747   1.358       .  S
C2744      H2748   1.084       .  S
C2749      C2750   1.399       .  A
C2749      C2754   1.393       .  A
C2749      H2759   1.084       .  S
C2750      C2751   1.405       .  A
C2750      C2755   1.478       .  S
C2751      C2752   1.404       .  A
C2751      F2756   1.357       .  S
C2752      C2753   1.411       .  A
C2752      H2757   1.083       .  S
C2753      C2754   1.411       .  A
C2754      F2758   1.357       .  S
C2755      C2760   1.405       .  A
C2755      C2764   1.403       .  A
C2760      C2761   1.398       .  A
C2760      F2765   1.358       .  S
C2761      C2762   1.405       .  A
C2761      H2766   1.084       .  S
C2762      C2763   1.409       .  A
C2763      C2764   1.400       .  A
C2763      F2767   1.357       .  S
C2764      H2768   1.084       .  S
C2769      C2770   1.404       .  A
C2769      C2774   1.395       .  A
C2769      H2779   1.083       .  S
C2770      C2771   1.410       .  A
C2770      C2775   1.488       .  S
C2771      C2772   1.403       .  A
C2771      F2776   1.357       .  S
C2772      C2773   1.404       .  A
C2772      H2777   1.082       .  S
C2773      C2774   1.406       .  A
C2774      F2778   1.358       .  S
C2775      C2780   1.410       .  A
C2775      C2784   1.407       .  A
C2780      C2781   1.394       .  A
C2780      F2785   1.358       .  S
C2781      C2782   1.401       .  A
C2781      H2786   1.085       .  S
C2782      C2783   1.405       .  A
C2783      C2784   1.403       .  A
C2783      F2787   1.357       .  S
C2784      H2788   1.083       .  S
C2789      C2790   1.404       .  A
C2789      C2794   1.398       .  A
C2789      H2799   1.087       .  S
C2790      C2791   1.405       .  A
C2790      C2795   1.481       .  S
C2791      C2792   1.397       .  A
C2791      F2796   1.357       .  S
C2792      C2793   1.406       .  A
C2792      H2797   1.086       .  S
C2793      C2794   1.409       .  A
C2794      F2798   1.357       .  S
C2795      C2800   1.408       .  A
C2795      C2804   1.403       .  A
C2800      C2801   1.399       .  A
C2800      F2805   1.357       .  S
C2801      C2802   1.403       .  A
C2801      H2806   1.085       .  S
C2802      C2803   1.408       .  A
C2803      C2804   1.397       .  A
C2803      F2807   1.358       .  S
C2804      H2808   1.085       .  S
C2809      C2810   1.406       .  A
C2809      C2814   1.397       .  A
C2809      H2819   1.082       .  S
C2810      C2811   1.405       .  A
C2810      C2815   1.476       .  S
C2811      C2812   1.391       .  A
C2811      F2816   1.358       .  S
C2812      C2813   1.404       .  A
C2812      H2817   1.082       .  S
C2813      C2814   1.403       .  A
C2814      F2818   1.357       .  S
C2815      C2820   1.404       .  A
C2815      C2824   1.404       .  A
C2820      C2821   1.393       .  A
C2820      F2825   1.358       .  S
C2821      C2822   1.404       .  A
C2821      H2826   1.083       .  S
C2822      C2823   1.407       .  A
C2823      C2824   1.395       .  A
C2823      F2827   1.357       .  S
C2824      H2828   1.083       .  S
C2829      C2830   1.403       .  A
C2829      C2834   1.397       .  A
C2829      H2839   1.085       .  S
C2830      C2831   1.405       .  A
C2830      C2835   1.472       .  S
C2831      C2832   1.395       .  A
C2831      F2836   1.358       .  S
C2832      C2833   1.401       .  A
C2832      H2837   1.085       .  S
C2833      C2834   1.403       .  A
C2834      F2838   1.357       .  S
C2835      C2840   1.403       .  A
C2835      C2844   1.402       .  A
C2840      C2841   1.395       .  A
C2840      F2845   1.358       .  S
C2841      C2842   1.406       .  A
C2841      H2846   1.082       .  S
C2842      C2843   1.407       .  A
C2843      C2844   1.397       .  A
C2843      F2847   1.357       .  S
C2844      H2848   1.082       .  S
C2849      C2850   1.400       .  A
C2849      C2854   1.390       .  A
C2849      H2859   1.085       .  S
C2850      C2851   1.405       .  A
C2850      C2855   1.473       .  S
C2851      C2852   1.395       .  A
C2851      F2856   1.358       .  S
C2852      C2853   1.406       .  A
C2852      H2857   1.084       .  S
C2853      C2854   1.411       .  A
C2854      F2858   1.357       .  S
C2855      C2860   1.406       .  A
C2855      C2864   1.404       .  A
C2860      C2861   1.387       .  A
C2860      F2865   1.358       .  S
C2861      C2862   1.402       .  A
C2861      H2866   1.086       .  S
C2862      C2863   1.406       .  A
C2863      C2864   1.396       .  A
C2863      F2867   1.357       .  S
C2864      H2868   1.086       .  S
C2869      C2870   1.405       .  A
C2869      C2874   1.399       .  A
C2869      H2879   1.085       .  S
C2870      C2871   1.406       .  A
C2870      C2875   1.480       .  S
C2871      C2872   1.393       .  A
C2872      C2873   1.403       .  A
C2873      C2874   1.407       .  A
C2874      F2878   1.358       .  S
C2875      C2880   1.406       .  A
C2875      C2884   1.403       .  A
C2880      C2881   1.399       .  A
C2880      F2885   1.358       .  S
C2881      C2882   1.407       .  A
C2881      H2886   1.084       .  S
C2882      C2883   1.407       .  A
C2883      C2884   1.395       .  A
C2883      F2887   1.357       .  S
C2884      H2888   1.084       .  S
C2889      C2890   1.406       .  A
C2889      C2894   1.396       .  A
C2890      C2891   1.408       .  A
C2890      C2895   1.482       .  S
C2891      C2892   1.395       .  A
C2891      F2896   1.358       .  S
C2892      C2893   1.403       .  A
C2892      H2897   1.085       .  S
C2893      C2894   1.403       .  A
C2894      F2898   1.357       .  S
C2895      C2900   1.408       .  A
C2895      C2904   1.406       .  A
C2901      H2906   1.083       .  S
C2902      C2903   1.403       .  A
C2903      C2904   1.394       .  A
C2903      F2907   1.358       .  S
C2904      H2908   1.082       .  S
C2909      C2910   1.402       .  A
C2909      C2914   1.401       .  A
C2909      H2919   1.084       .  S
C2910      C2911   1.403       .  A
C2910      C2915   1.475       .  S
C2911      C2912   1.398       .  A
C2911      F2916   1.358       .  S
C2912      C2913   1.406       .  A
C2912      H2917   1.084       .  S
C2913      C2914   1.410       .  A
C2914      F2918   1.357       .  S
C2915      C2920   1.403       .  A
C2915      C2924   1.401       .  A
C2920      C2921   1.397       .  A
C2920      F2925   1.358       .  S
C2921      C2922   1.405       .  A
C2921      H2926   1.083       .  S
C2923      F2927   1.357       .  S
