geometry optimzed in LAMMPS
_audit_creation_date              2020-12-01 
_audit_creation_method            'lammps2cif' 
_symmetry_space_group_name_H-M    'P1' 
_symmetry_Int_Tables_number       1 
_symmetry_cell_setting            triclinic 
loop_ 
_symmetry_equiv_pos_as_xyz 
  x,y,z 
_cell_length_a                    26.59095446 
_cell_length_b                    26.56937341756928 
_cell_length_c                    42.92127851843115 
_cell_angle_alpha                 89.57134326672403 
_cell_angle_beta                  90.08395416159517 
_cell_angle_gamma                 87.8482719689153 
loop_ 
_atom_site_label 
_atom_site_type_symbol 
_atom_site_fract_x 
_atom_site_fract_y 
_atom_site_fract_z 
_atom_site_charge 
C1          C  0.16519224  0.99683693  0.06581494     0.42500
N2          N  0.08674040  0.49427738  0.05504641     0.01400
C3          C  0.48943616  0.39392619  0.41920473    -0.06500
H4          H  0.10064063  0.03684844  0.39772522     0.06900
C5          C  0.47536038  0.15508604  0.46362251    -0.06800
Co6        Co  0.07054954  0.43499980  0.49712745     0.74200
N7          N  0.07941556  0.50173156  0.44113227    -0.26000
Co8        Co  0.50102226  0.00390970  0.44227617     0.74100
C9          C  0.00085072  0.16089376  0.43387225     0.42600
N10         N  0.47913955  0.10043233  0.03723240     0.01000
N11         N  0.49774961  0.08234498  0.44477620     0.01100
N12         N  0.03187399  0.35036818  0.45712251    -0.46900
H13         H  0.18781321  0.45407418  0.02139797     0.06900
N14         N  0.10566941  0.47708685  0.46288709     0.01400
N15         N  0.42258465  0.00529121  0.44468435     0.01100
C16         C  0.34432520  0.50122856  0.43350349     0.42700
N17         N  0.50441543  0.07408054  0.05870070    -0.25500
C18         C  0.03529174  0.34471723  0.03682344    -0.06400
N19         N  0.11862248  0.00854045  0.07677289    -0.46600
N20         N  0.39119860  0.48976099  0.42302448    -0.46800
C21         C  0.51095821  0.33883113  0.06692286     0.42500
N22         N  0.02978703  0.39929449  0.46280939     0.01400
N23         N  0.42992810  0.99775078  0.05881482    -0.25500
N24         N  0.10977643  0.47175436  0.03145681    -0.26000
N25         N  0.40331989  0.02244601  0.03720922     0.01000
H26         H  0.40929151  0.46039923  0.10158954     0.06900
H27         H  0.32053478  0.04426351  0.47771413     0.06900
N28         N  0.00495789  0.42556983  0.44112286    -0.26000
N29         N  0.47459514  0.10518513  0.46823478    -0.25700
N30         N  0.01175149  0.41731024  0.05541745     0.01400
C31         C  0.16105296  0.00093617  0.43037668     0.42800
C32         C  0.02099569  0.10567781  0.08031715    -0.06900
N33         N  0.39905380  0.02793754  0.46807836    -0.25700
H34         H  0.45726760  0.18343875  0.47816693     0.06900
N35         N  0.15460357  0.47568854  0.45729932    -0.46900
H36         H  0.04116596  0.09492765  0.10137325     0.06900
C37         C  0.34839591  0.49641467  0.06936872     0.42600
C38         C  0.15951938  0.47229928  0.03595424    -0.06400
Co39       Co  0.00831059  0.49576605  0.05767561     0.73800
N40         N  0.47782571  0.14943080  0.04278749    -0.46600
C41         C  0.50692707  0.34419635  0.43016678     0.42900
N42         N  0.49806487  0.38532034  0.07743007    -0.46600
Co43       Co  0.43822906  0.06475621  0.00280334     0.73900
C44         C  0.34932734  0.02662616  0.46326166    -0.06900
C45         C  0.11124121  0.01773701  0.41921476    -0.06500
N46         N  0.03467270  0.39455939  0.03184756    -0.26000
N47         N  0.01288499  0.11433416  0.42319014    -0.46800
H48         H  0.46986442  0.40467579  0.39793610     0.06900
C49         C  0.39840762  0.48035412  0.08044319    -0.06900
Cl50       Cl  0.00443218  0.99985225  0.99998198    -0.49900
C51         C  0.00383090  0.15548285  0.06938959     0.42600
H52         H  0.05391694  0.31657441  0.02237354     0.06900
N53         N  0.35434262  0.02258844  0.04268869    -0.46600
C54         C  0.00844863  0.24824391  0.13284316     0.80300
N55         N  0.00756505  0.20387414  0.11741788    -0.78000
C56         C  0.00674110  0.20329595  0.08584590     0.82700
N57         N  0.00708480  0.24727674  0.06960889    -0.78000
C58         C  0.00796142  0.29183691  0.08483896     0.82800
N59         N  0.00818757  0.29230959  0.11650182    -0.79700
C60         C  0.00071315  0.25027680  0.36726176     0.80300
N61         N  0.00205009  0.29483374  0.38248188    -0.78000
C62         C  0.00421111  0.29606725  0.41402623     0.82700
N63         N  0.00486396  0.25241375  0.43061104    -0.78000
C64         C  0.00369873  0.20761589  0.41572018     0.82800
N65         N  0.00207612  0.20660679  0.38409537    -0.79700
C66         C  0.25363288  0.48937519  0.13232537     0.80300
N67         N  0.21040354  0.49418366  0.11549614    -0.78000
C68         C  0.21175443  0.49715010  0.08396341     0.82700
N69         N  0.25668718  0.49676314  0.06906762    -0.78000
C70         C  0.30017744  0.49297251  0.08556487     0.82800
N71         N  0.29856241  0.48883797  0.11708117    -0.79700
C72         C  0.25545385  0.49322934  0.36726623     0.80300
N73         N  0.21054215  0.49794065  0.38226728    -0.78000
C74         C  0.20911797  0.50102419  0.41379496     0.82700
N75         N  0.25270718  0.50070595  0.43026206    -0.78000
C76         C  0.29772024  0.49726732  0.41544368     0.82800
N77         N  0.29904770  0.49311351  0.38391374    -0.79700
C78         C  0.27719574  0.44892671  0.28414477    -0.11800
C79         C  0.25566178  0.48969781  0.26732198     0.10700
C80         C  0.23236951  0.03073418  0.28327939    -0.03600
C81         C  0.23347072  0.03049222  0.31603276    -0.06400
C82         C  0.25648264  0.49048944  0.33293097    -0.17200
C83         C  0.27769690  0.44837446  0.31692025     0.01800
C84         C  0.25674838  0.48779587  0.23287279     0.11700
C85         C  0.20615807  0.07423038  0.26573954     0.62300
H86         H  0.21642936  0.06172854  0.32880760     0.11700
C87         C  0.29907065  0.40242365  0.33430742     0.54500
H88         H  0.29367270  0.41749997  0.27127782     0.07500
C89         C  0.29766244  0.00553345  0.21558691    -0.06300
C90         C  0.29459572  0.00552917  0.18292796    -0.07000
C91         C  0.25263291  0.48734306  0.16705770    -0.16600
C92         C  0.21241866  0.46742314  0.18471089    -0.02200
C93         C  0.21552802  0.46814188  0.21744793    -0.09700
C94         C  0.34488115  0.02310334  0.23159104     0.64500
H95         H  0.32536246  0.02003718  0.16950450     0.10000
C96         C  0.16651925  0.44500519  0.16970844     0.62900
H97         H  0.18520030  0.45412145  0.23151046     0.07400
F98         F  0.34203454  0.41466276  0.35028452    -0.20100
F99         F  0.31146166  0.36331974  0.31426356    -0.16300
F100        F  0.26385953  0.38540093  0.35520089    -0.19800
F101        F  0.16723721  0.05654658  0.24800469    -0.23200
F102        F  0.23977188  0.09737497  0.24630113    -0.24700
F103        F  0.18621172  0.11025988  0.28580304    -0.18700
F104        F  0.13652868  0.42168330  0.19141091    -0.21200
F105        F  0.18144441  0.40917014  0.14804866    -0.22300
F106        F  0.13731039  0.48264021  0.15538745    -0.19500
F107        F  0.37894060  0.04178293  0.21047974    -0.19600
F108        F  0.36809444  0.48300053  0.24731822    -0.23400
F109        F  0.33298361  0.06078700  0.25263265    -0.25000
C110        C  0.47591203  0.28145161  0.28134145    -0.11800
C111        C  0.00221526  0.24144463  0.26702112     0.10700
C112        C  0.02794869  0.20431182  0.28533310    -0.03600
C113        C  0.02567856  0.20831911  0.31796803    -0.06400
C114        C  0.99964430  0.24876288  0.33261211    -0.17200
C115        C  0.47369360  0.28588132  0.31389960     0.01800
C116        C  0.00361119  0.24122407  0.23258714     0.11700
C117        C  0.05874720  0.16158690  0.27043542     0.62300
H118        H  0.04561600  0.18045946  0.33233014     0.11700
C119        C  0.44293281  0.32966759  0.32762537     0.54500
H120        H  0.45738828  0.30965608  0.26651974     0.07500
C121        C  0.46379557  0.22261092  0.21463465    -0.06300
C122        C  0.46704997  0.22547258  0.18198519    -0.07000
C123        C  0.00765745  0.24795472  0.16718767    -0.16600
C124        C  0.04708925  0.26724578  0.18522251    -0.02200
C125        C  0.04428748  0.26349841  0.21785048    -0.09700
C126        C  0.41769367  0.20097213  0.22991604     0.64500
H127        H  0.43738985  0.21104100  0.16767973     0.10000
C128        C  0.09244750  0.29042068  0.17013746     0.62900
H129        H  0.07362425  0.27834026  0.23224593     0.07400
F130        F  0.41482725  0.35554642  0.30508201    -0.20100
F131        F  0.47456623  0.36348116  0.34102977    -0.16300
F132        F  0.40990936  0.31216549  0.34973138    -0.19800
F133        F  0.09842304  0.18095780  0.25404010    -0.23200
F134        F  0.02921957  0.13524145  0.25020039    -0.24700
F135        F  0.07826468  0.12789384  0.29247031    -0.18700
F136        F  0.07768538  0.33419798  0.15450476    -0.21200
F137        F  0.11445381  0.25679548  0.14931814    -0.22300
F138        F  0.12847554  0.30234331  0.19192968    -0.19500
F139        F  0.38455435  0.18293996  0.20812916    -0.19600
F140        F  0.39244502  0.23794850  0.24691149    -0.23400
F141        F  0.43182077  0.16161955  0.24966416    -0.25000
C142        C  0.16519224  0.99683714  0.56581497     0.42500
N143        N  0.08674037  0.49427748  0.55504641     0.01400
C144        C  0.48943631  0.39392608  0.91920469    -0.06500
H145        H  0.10064076  0.03684829  0.89772544     0.06900
C146        C  0.47536046  0.15508580  0.96362242    -0.06800
Co147      Co  0.07054965  0.43499966  0.99712746     0.74200
N148        N  0.07941567  0.50173142  0.94113228    -0.26000
Co149      Co  0.50102229  0.00390958  0.94227618     0.74100
C150        C  0.00085084  0.16089362  0.93387225     0.42600
N151        N  0.47913956  0.10043241  0.53723243     0.01000
N152        N  0.49774965  0.08234485  0.94477619     0.01100
N153        N  0.03187413  0.35036804  0.95712253    -0.46900
H154        H  0.18781315  0.45407422  0.52139793     0.06900
N155        N  0.10566953  0.47708671  0.96288710     0.01400
N156        N  0.42258468  0.00529107  0.94468434     0.01100
C157        C  0.34432529  0.50122834  0.93350347     0.42700
N158        N  0.50441541  0.07408062  0.55870072    -0.25500
C159        C  0.03529173  0.34471727  0.53682336    -0.06400
N160        N  0.11862243  0.00854057  0.57677294    -0.46600
N161        N  0.39119870  0.48976082  0.92302444    -0.46800
C162        C  0.51095824  0.33883121  0.56692283     0.42500
N163        N  0.02978716  0.39929434  0.96280941     0.01400
N164        N  0.42992810  0.99775086  0.55881483    -0.25500
N165        N  0.10977637  0.47175447  0.53145680    -0.26000
N166        N  0.40331991  0.02244609  0.53720922     0.01000
H167        H  0.40929149  0.46039944  0.60158953     0.06900
H168        H  0.32053476  0.04426340  0.97771416     0.06900
N169        N  0.00495801  0.42556968  0.94112287    -0.26000
N170        N  0.47459513  0.10518503  0.96823477    -0.25700
N171        N  0.01175145  0.41731035  0.55541744     0.01400
C172        C  0.16105300  0.00093614  0.93037670     0.42800
C173        C  0.02099580  0.10567788  0.58031731    -0.06900
N174        N  0.39905382  0.02793742  0.96807835    -0.25700
H175        H  0.45726740  0.18343894  0.97816703     0.06900
N176        N  0.15460368  0.47568844  0.95729934    -0.46900
H177        H  0.04116566  0.09492790  0.60137298     0.06900
C178        C  0.34839590  0.49641475  0.56936876     0.42600
C179        C  0.15951932  0.47229934  0.53595423    -0.06400
Co180      Co  0.00831055  0.49576618  0.55767563     0.73800
N181        N  0.47782574  0.14943089  0.54278750    -0.46600
C182        C  0.50692722  0.34419623  0.93016677     0.42900
N183        N  0.49806488  0.38532041  0.57743007    -0.46600
Co184      Co  0.43822906  0.06475631  0.50280336     0.73900
C185        C  0.34932740  0.02662600  0.96326164    -0.06900
C186        C  0.11124122  0.01773704  0.91921470    -0.06500
N187        N  0.03467259  0.39455954  0.53184755    -0.26000
N188        N  0.01288504  0.11433403  0.92319011    -0.46800
H189        H  0.46986465  0.40467564  0.89793611     0.06900
C190        C  0.39840763  0.48035420  0.58044327    -0.06900
Cl191      Cl  0.00443216  0.99985237  0.49998199    -0.49900
C192        C  0.00383092  0.15548296  0.56938960     0.42600
H193        H  0.05391672  0.31657479  0.52237358     0.06900
N194        N  0.35434264  0.02258857  0.54268871    -0.46600
C195        C  0.00844865  0.24824403  0.63284315     0.80300
N196        N  0.00756504  0.20387427  0.61741788    -0.78000
C197        C  0.00674114  0.20329607  0.58584591     0.82700
N198        N  0.00708487  0.24727687  0.56960889    -0.78000
C199        C  0.00796150  0.29183702  0.58483895     0.82800
N200        N  0.00818764  0.29230972  0.61650182    -0.79700
C201        C  0.00071319  0.25027665  0.86726176     0.80300
N202        N  0.00205016  0.29483360  0.88248188    -0.78000
C203        C  0.00421125  0.29606710  0.91402623     0.82700
N204        N  0.00486410  0.25241360  0.93061104    -0.78000
C205        C  0.00369884  0.20761575  0.91572017     0.82800
N206        N  0.00207619  0.20660665  0.88409537    -0.79700
C207        C  0.25363281  0.48937529  0.63232537     0.80300
N208        N  0.21040350  0.49418373  0.61549613    -0.78000
C209        C  0.21175441  0.49715012  0.58396340     0.82700
N210        N  0.25668717  0.49676314  0.56906763    -0.78000
C211        C  0.30017742  0.49297254  0.58556489     0.82800
N212        N  0.29856237  0.48883804  0.61708119    -0.79700
C213        C  0.25545389  0.49322922  0.86726622     0.80300
N214        N  0.21054221  0.49794058  0.88226728    -0.78000
C215        C  0.20911806  0.50102409  0.91379497     0.82700
N216        N  0.25270728  0.50070579  0.93026205    -0.78000
C217        C  0.29772032  0.49726714  0.91544365     0.82800
N218        N  0.29904776  0.49311335  0.88391371    -0.79700
C219        C  0.27719563  0.44892655  0.78414469    -0.11800
C220        C  0.25566160  0.48969777  0.76732198     0.10700
C221        C  0.23236951  0.03073434  0.78327940    -0.03600
C222        C  0.23347090  0.03049207  0.81603267    -0.06400
C223        C  0.25648263  0.49048937  0.83293095    -0.17200
C224        C  0.27769683  0.44837440  0.81692021     0.01800
C225        C  0.25674821  0.48779589  0.73287278     0.11700
C226        C  0.20615805  0.07423051  0.76573956     0.62300
H227        H  0.21642912  0.06172918  0.82880783     0.11700
C228        C  0.29907064  0.40242357  0.83430734     0.54500
H229        H  0.29367240  0.41750015  0.77127784     0.07500
C230        C  0.29766240  0.00553365  0.71558694    -0.06300
C231        C  0.29459574  0.00552933  0.68292798    -0.07000
C232        C  0.25263282  0.48734316  0.66705769    -0.16600
C233        C  0.21241857  0.46742316  0.68471085    -0.02200
C234        C  0.21552804  0.46814198  0.71744781    -0.09700
C235        C  0.34488106  0.02310359  0.73159110     0.64500
H236        H  0.32536243  0.02003733  0.66950455     0.10000
C237        C  0.16651924  0.44500512  0.66970835     0.62900
H238        H  0.18519977  0.45412126  0.73151055     0.07400
F239        F  0.34203459  0.41466267  0.85028439    -0.20100
F240        F  0.31146160  0.36331968  0.81426346    -0.16300
F241        F  0.26385957  0.38540083  0.85520083    -0.19800
F242        F  0.16723720  0.05654669  0.74800471    -0.23200
F243        F  0.23977183  0.09737515  0.74630116    -0.24700
F244        F  0.18621169  0.11026001  0.78580307    -0.18700
F245        F  0.13652867  0.42168311  0.69141079    -0.21200
F246        F  0.18144453  0.40917013  0.64804857    -0.22300
F247        F  0.13731034  0.48264010  0.65538735    -0.19500
F248        F  0.37894056  0.04178311  0.71047981    -0.19600
F249        F  0.36809418  0.48300044  0.74731830    -0.23400
F250        F  0.33298346  0.06078731  0.75263266    -0.25000
C251        C  0.47591203  0.28145146  0.78134144    -0.11800
C252        C  0.00221516  0.24144455  0.76702112     0.10700
C253        C  0.02794856  0.20431170  0.78533307    -0.03600
C254        C  0.02567853  0.20831884  0.81796805    -0.06400
C255        C  0.99964426  0.24876274  0.83261211    -0.17200
C256        C  0.47369362  0.28588115  0.81389960     0.01800
C257        C  0.00361112  0.24122407  0.73258712     0.11700
C258        C  0.05874707  0.16158679  0.77043535     0.62300
H259        H  0.04561573  0.18045947  0.83232999     0.11700
C260        C  0.44293286  0.32966747  0.82762537     0.54500
H261        H  0.45738829  0.30965587  0.76651975     0.07500
C262        C  0.46379566  0.22261086  0.71463461    -0.06300
C263        C  0.46705011  0.22547266  0.68198518    -0.07000
C264        C  0.00765741  0.24795486  0.66718767    -0.16600
C265        C  0.04708918  0.26724593  0.68522253    -0.02200
C266        C  0.04428745  0.26349852  0.71785053    -0.09700
C267        C  0.41769377  0.20097196  0.72991596     0.64500
H268        H  0.43738982  0.21104098  0.66767960     0.10000
C269        C  0.09244742  0.29042090  0.67013752     0.62900
H270        H  0.07362399  0.27834027  0.73224590     0.07400
F271        F  0.41482730  0.35554632  0.80508201    -0.20100
F272        F  0.47456632  0.36348101  0.84102974    -0.16300
F273        F  0.40990944  0.31216541  0.84973141    -0.19800
F274        F  0.09842286  0.18095773  0.75403999    -0.23200
F275        F  0.02921941  0.13524133  0.75020034    -0.24700
F276        F  0.07826461  0.12789373  0.79247020    -0.18700
F277        F  0.07768526  0.33419825  0.65450489    -0.21200
F278        F  0.11445374  0.25679579  0.64931815    -0.22300
F279        F  0.12847545  0.30234343  0.69192976    -0.19500
F280        F  0.38455444  0.18293989  0.70812905    -0.19600
F281        F  0.39244511  0.23794825  0.74691149    -0.23400
F282        F  0.43182091  0.16161929  0.74966400    -0.25000
C283        C  0.16519225  0.49683689  0.06581492     0.42500
N284        N  0.08674039  0.99427742  0.05504642     0.01400
C285        C  0.48943627  0.89392619  0.41920468    -0.06500
H286        H  0.10064066  0.53684830  0.39772544     0.06900
C287        C  0.47536032  0.65508596  0.46362250    -0.06800
Co288      Co  0.07054962  0.93499980  0.49712750     0.74200
N289        N  0.07941564  0.00173156  0.44113230    -0.26000
Co290      Co  0.50102218  0.50390970  0.44227620     0.74100
C291        C  0.00085088  0.66089376  0.43387226     0.42600
N292        N  0.47913950  0.60043232  0.03723239     0.01000
N293        N  0.49774949  0.58234496  0.44477622     0.01100
N294        N  0.03187423  0.85036817  0.45712253    -0.46900
H295        H  0.18781317  0.95407417  0.02139800     0.06900
N296        N  0.10566952  0.97708684  0.46288715     0.01400
N297        N  0.42258458  0.50529116  0.44468440     0.01100
C298        C  0.34432527  0.00122857  0.43350345     0.42700
N299        N  0.50441538  0.57408052  0.05870072    -0.25500
C300        C  0.03529167  0.84471718  0.03682342    -0.06400
N301        N  0.11862249  0.50854038  0.07677289    -0.46600
N302        N  0.39119868  0.98976101  0.42302444    -0.46800
C303        C  0.51095805  0.83883113  0.06692287     0.42500
N304        N  0.02978717  0.89929445  0.46280943     0.01400
N305        N  0.42992813  0.49775069  0.05881482    -0.25500
N306        N  0.10977640  0.97175438  0.03145683    -0.26000
N307        N  0.40331992  0.52244593  0.03720922     0.01000
H308        H  0.40929148  0.96039948  0.10158948     0.06900
H309        H  0.32053474  0.54426353  0.47771416     0.06900
N310        N  0.00495805  0.92556979  0.44112287    -0.26000
N311        N  0.47459503  0.60518513  0.46823481    -0.25700
N312        N  0.01175148  0.91731025  0.05541746     0.01400
C313        C  0.16105288  0.50093622  0.43037666     0.42800
C314        C  0.02099581  0.60567779  0.08031717    -0.06900
N315        N  0.39905373  0.52793750  0.46807841    -0.25700
H316        H  0.45726739  0.68343891  0.47816702     0.06900
N317        N  0.15460365  0.97568852  0.45729937    -0.46900
H318        H  0.04116596  0.59492769  0.10137312     0.06900
C319        C  0.34839590  0.99641481  0.06936874     0.42600
C320        C  0.15951936  0.97229927  0.03595426    -0.06400
Co321      Co  0.00831056  0.99576607  0.05767562     0.73800
N322        N  0.47782567  0.64943077  0.04278747    -0.46600
C323        C  0.50692714  0.84419634  0.43016673     0.42900
N324        N  0.49806476  0.88532034  0.07743008    -0.46600
Co325      Co  0.43822905  0.56475615  0.00280335     0.73900
C326        C  0.34932727  0.52662615  0.46326171    -0.06900
C327        C  0.11124109  0.51773715  0.41921463    -0.06500
N328        N  0.03467265  0.89455940  0.03184758    -0.26000
N329        N  0.01288499  0.61433416  0.42319012    -0.46800
H330        H  0.46986457  0.90467580  0.39793601     0.06900
C331        C  0.39840762  0.98035422  0.08044324    -0.06900
Cl332      Cl  0.00443219  0.49985226  0.99998197    -0.49900
C333        C  0.00383097  0.65548284  0.06938957     0.42600
H334        H  0.05391671  0.81657451  0.02237359     0.06900
N335        N  0.35434266  0.52258834  0.04268869    -0.46600
C336        C  0.00844841  0.74824387  0.13284316     0.80300
N337        N  0.00756493  0.70387411  0.11741787    -0.78000
C338        C  0.00674108  0.70329594  0.08584589     0.82700
N339        N  0.00708476  0.74727675  0.06960889    -0.78000
C340        C  0.00796129  0.79183691  0.08483897     0.82800
N341        N  0.00818736  0.79230957  0.11650183    -0.79700
C342        C  0.00071330  0.75027674  0.36726174     0.80300
N343        N  0.00205034  0.79483367  0.38248185    -0.78000
C344        C  0.00421148  0.79606721  0.41402620     0.82700
N345        N  0.00486431  0.75241373  0.43061102    -0.78000
C346        C  0.00369895  0.70761587  0.41572017     0.82800
N347        N  0.00207625  0.70660673  0.38409537    -0.79700
C348        C  0.25363285  0.98937511  0.13232538     0.80300
N349        N  0.21040354  0.99418361  0.11549615    -0.78000
C350        C  0.21175442  0.99715015  0.08396342     0.82700
N351        N  0.25668716  0.99676325  0.06906764    -0.78000
C352        C  0.30017743  0.99297260  0.08556488     0.82800
N353        N  0.29856241  0.98883796  0.11708117    -0.79700
C354        C  0.25545385  0.99322907  0.36726624     0.80300
N355        N  0.21054218  0.99794046  0.38226729    -0.78000
C356        C  0.20911804  0.00102410  0.41379498     0.82700
N357        N  0.25270725  0.00070593  0.43026205    -0.78000
C358        C  0.29772030  0.99726725  0.41544365     0.82800
N359        N  0.29904773  0.99311330  0.38391372    -0.79700
C360        C  0.27719570  0.94892599  0.28414474    -0.11800
C361        C  0.25566172  0.98969728  0.26732200     0.10700
C362        C  0.23236951  0.53073465  0.28327940    -0.03600
C363        C  0.23347077  0.53049248  0.31603273    -0.06400
C364        C  0.25648259  0.99048906  0.33293097    -0.17200
C365        C  0.27769672  0.94837400  0.31692029     0.01800
C366        C  0.25674838  0.98779531  0.23287281     0.11700
C367        C  0.20615803  0.57423083  0.26573958     0.62300
H368        H  0.21642916  0.56172908  0.32880772     0.11700
C369        C  0.29907028  0.90242313  0.33430750     0.54500
H370        H  0.29367230  0.91749979  0.27127804     0.07500
C371        C  0.29766241  0.50553398  0.21558686    -0.06300
C372        C  0.29459586  0.50552960  0.18292785    -0.07000
C373        C  0.25263292  0.98734281  0.16705771    -0.16600
C374        C  0.21241868  0.96742274  0.18471086    -0.02200
C375        C  0.21552812  0.96814141  0.21744786    -0.09700
C376        C  0.34488111  0.52310399  0.23159095     0.64500
H377        H  0.32536212  0.52003734  0.16950455     0.10000
C378        C  0.16651935  0.94500477  0.16970835     0.62900
H379        H  0.18520011  0.95412082  0.23151048     0.07400
F380        F  0.34203425  0.91466208  0.35028458    -0.20100
F381        F  0.31146107  0.86331911  0.31426370    -0.16300
F382        F  0.26385907  0.88540067  0.35520101    -0.19800
F383        F  0.16723719  0.55654700  0.24800472    -0.23200
F384        F  0.23977179  0.59737550  0.24630118    -0.24700
F385        F  0.18621165  0.61026029  0.28580310    -0.18700
F386        F  0.13652886  0.92168266  0.19141078    -0.21200
F387        F  0.18144460  0.90916989  0.14804849    -0.22300
F388        F  0.13731040  0.98263981  0.15538745    -0.19500
F389        F  0.37894056  0.54178345  0.21047961    -0.19600
F390        F  0.36809447  0.98299975  0.24731819    -0.23400
F391        F  0.33298351  0.56078780  0.25263246    -0.25000
C392        C  0.47591204  0.78145137  0.28134149    -0.11800
C393        C  0.00221487  0.74144446  0.26702110     0.10700
C394        C  0.02794825  0.70431156  0.28533304    -0.03600
C395        C  0.02567825  0.70831895  0.31796793    -0.06400
C396        C  0.99964427  0.74876278  0.33261209    -0.17200
C397        C  0.47369349  0.78588113  0.31389960     0.01800
C398        C  0.00361081  0.74122396  0.23258713     0.11700
C399        C  0.05874656  0.66158656  0.27043530     0.62300
H400        H  0.04561578  0.68045901  0.33233011     0.11700
C401        C  0.44293253  0.82966730  0.32762535     0.54500
H402        H  0.45738817  0.80965606  0.26651966     0.07500
C403        C  0.46379545  0.72261093  0.21463466    -0.06300
C404        C  0.46704979  0.72547262  0.18198519    -0.07000
C405        C  0.00765717  0.74795466  0.16718767    -0.16600
C406        C  0.04708901  0.76724560  0.18522254    -0.02200
C407        C  0.04428718  0.76349819  0.21785050    -0.09700
C408        C  0.41769347  0.70097228  0.22991605     0.64500
H409        H  0.43738968  0.71104121  0.16767975     0.10000
C410        C  0.09244734  0.79042038  0.17013753     0.62900
H411        H  0.07362398  0.77833992  0.23224597     0.07400
F412        F  0.41482681  0.85554597  0.30508198    -0.20100
F413        F  0.47456581  0.86348103  0.34102970    -0.16300
F414        F  0.40990919  0.81216510  0.34973139    -0.19800
F415        F  0.09842236  0.68095733  0.25403986    -0.23200
F416        F  0.02921871  0.63524116  0.25020037    -0.24700
F417        F  0.07826411  0.62789346  0.29247015    -0.18700
F418        F  0.07768533  0.83419765  0.15450477    -0.21200
F419        F  0.11445368  0.75679509  0.14931828    -0.22300
F420        F  0.12847531  0.80234300  0.19192980    -0.19500
F421        F  0.38455406  0.68294024  0.20812917    -0.19600
F422        F  0.39244493  0.73794873  0.24691151    -0.23400
F423        F  0.43182045  0.66161964  0.24966416    -0.25000
C424        C  0.16519224  0.49683691  0.56581491     0.42500
N425        N  0.08674035  0.99427756  0.55504648     0.01400
C426        C  0.48943610  0.89392615  0.91920456    -0.06500
H427        H  0.10064075  0.53684823  0.89772546     0.06900
C428        C  0.47536042  0.65508577  0.96362244    -0.06800
Co429      Co  0.07054965  0.93499965  0.99712748     0.74200
N430        N  0.07941568  0.00173145  0.94113230    -0.26000
Co431      Co  0.50102228  0.50390958  0.94227618     0.74100
C432        C  0.00085097  0.66089362  0.93387226     0.42600
N433        N  0.47913949  0.60043241  0.53723243     0.01000
N434        N  0.49774957  0.58234484  0.94477618     0.01100
N435        N  0.03187428  0.85036803  0.95712248    -0.46900
H436        H  0.18781361  0.95407419  0.52139781     0.06900
N437        N  0.10566954  0.97708673  0.96288712     0.01400
N438        N  0.42258468  0.50529101  0.94468435     0.01100
C439        C  0.34432530  0.00122839  0.93350346     0.42700
N440        N  0.50441538  0.57408061  0.55870075    -0.25500
C441        C  0.03529182  0.84471720  0.53682338    -0.06400
N442        N  0.11862248  0.50854045  0.57677288    -0.46600
N443        N  0.39119871  0.98976084  0.92302444    -0.46800
C444        C  0.51095807  0.83883121  0.56692283     0.42500
N445        N  0.02978721  0.89929434  0.96280938     0.01400
N446        N  0.42992811  0.49775079  0.55881486    -0.25500
N447        N  0.10977641  0.97175454  0.53145684    -0.26000
N448        N  0.40331990  0.52244603  0.53720926     0.01000
H449        H  0.40929144  0.96039965  0.60158949     0.06900
H450        H  0.32053480  0.54426323  0.97771416     0.06900
N451        N  0.00495811  0.92556966  0.94112285    -0.26000
N452        N  0.47459508  0.60518501  0.96823478    -0.25700
N453        N  0.01175149  0.91731035  0.55541747     0.01400
C454        C  0.16105298  0.50093612  0.93037667     0.42800
C455        C  0.02099584  0.60567788  0.58031728    -0.06900
N456        N  0.39905382  0.52793732  0.96807837    -0.25700
H457        H  0.45726738  0.68343891  0.97816708     0.06900
N458        N  0.15460369  0.97568844  0.95729936    -0.46900
H459        H  0.04116577  0.59492787  0.60137303     0.06900
C460        C  0.34839591  0.99641497  0.56936876     0.42600
C461        C  0.15951917  0.97229962  0.53595437    -0.06400
Co462      Co  0.00831055  0.99576618  0.55767565     0.73800
N463        N  0.47782566  0.64943087  0.54278751    -0.46600
C464        C  0.50692707  0.84419625  0.93016674     0.42900
N465        N  0.49806476  0.88532041  0.57743006    -0.46600
Co466      Co  0.43822900  0.56475628  0.50280339     0.73900
C467        C  0.34932736  0.52662590  0.96326168    -0.06900
C468        C  0.11124119  0.51773703  0.91921465    -0.06500
N469        N  0.03467266  0.89455954  0.53184760    -0.26000
N470        N  0.01288511  0.61433403  0.92319012    -0.46800
H471        H  0.46986476  0.90467560  0.89793633     0.06900
C472        C  0.39840762  0.98035433  0.58044328    -0.06900
Cl473      Cl  0.00443210  0.49985242  0.49998197    -0.49900
C474        C  0.00383096  0.65548297  0.56938960     0.42600
H475        H  0.05391670  0.81657494  0.52237374     0.06900
N476        N  0.35434263  0.52258842  0.54268873    -0.46600
C477        C  0.00844857  0.74824401  0.63284317     0.80300
N478        N  0.00756503  0.70387425  0.61741789    -0.78000
C479        C  0.00674115  0.70329607  0.58584592     0.82700
N480        N  0.00708486  0.74727688  0.56960892    -0.78000
C481        C  0.00796143  0.79183702  0.58483898     0.82800
N482        N  0.00818752  0.79230970  0.61650185    -0.79700
C483        C  0.00071324  0.75027662  0.86726174     0.80300
N484        N  0.00205030  0.79483356  0.88248185    -0.78000
C485        C  0.00421144  0.79606710  0.91402619     0.82700
N486        N  0.00486430  0.75241361  0.93061102    -0.78000
C487        C  0.00369896  0.70761574  0.91572017     0.82800
N488        N  0.00207622  0.70660662  0.88409536    -0.79700
C489        C  0.25363288  0.98937525  0.63232540     0.80300
N490        N  0.21040356  0.99418376  0.61549617    -0.78000
C491        C  0.21175441  0.99715035  0.58396345     0.82700
N492        N  0.25668717  0.99676348  0.56906765    -0.78000
C493        C  0.30017744  0.99297279  0.58556490     0.82800
N494        N  0.29856242  0.98883811  0.61708119    -0.79700
C495        C  0.25545391  0.99322911  0.86726623     0.80300
N496        N  0.21054221  0.99794051  0.88226729    -0.78000
C497        C  0.20911808  0.00102407  0.91379498     0.82700
N498        N  0.25270730  0.00070581  0.93026206    -0.78000
C499        C  0.29772034  0.99726713  0.91544366     0.82800
N500        N  0.29904776  0.99311326  0.88391372    -0.79700
C501        C  0.27719560  0.94892633  0.78414480    -0.11800
C502        C  0.25566169  0.98969742  0.76732199     0.10700
C503        C  0.23236942  0.53073462  0.78327943    -0.03600
C504        C  0.23347071  0.53049254  0.81603280    -0.06400
C505        C  0.25648263  0.99048916  0.83293098    -0.17200
C506        C  0.27769681  0.94837411  0.81692027     0.01800
C507        C  0.25674833  0.98779549  0.73287282     0.11700
C508        C  0.20615791  0.57423084  0.76573964     0.62300
H509        H  0.21642932  0.56172885  0.82880770     0.11700
C510        C  0.29907048  0.90242331  0.83430746     0.54500
H511        H  0.29367251  0.91749955  0.77127785     0.07500
C512        C  0.29766228  0.50553400  0.71558687    -0.06300
C513        C  0.29459570  0.50552965  0.68292788    -0.07000
C514        C  0.25263294  0.98734293  0.66705772    -0.16600
C515        C  0.21241871  0.96742283  0.68471087    -0.02200
C516        C  0.21552814  0.96814154  0.71744786    -0.09700
C517        C  0.34488095  0.52310393  0.73159100     0.64500
H518        H  0.32536212  0.52003747  0.66950454     0.10000
C519        C  0.16651942  0.94500478  0.66970835     0.62900
H520        H  0.18520007  0.95412087  0.73151051     0.07400
F521        F  0.34203450  0.91466233  0.85028446    -0.20100
F522        F  0.31146129  0.86331933  0.81426361    -0.16300
F523        F  0.26385939  0.88540075  0.85520099    -0.19800
F524        F  0.16723705  0.55654704  0.74800479    -0.23200
F525        F  0.23977165  0.59737554  0.74630124    -0.24700
F526        F  0.18621156  0.61026027  0.78580319    -0.18700
F527        F  0.13652889  0.92168273  0.69141078    -0.21200
F528        F  0.18144476  0.90916984  0.64804855    -0.22300
F529        F  0.13731049  0.98263975  0.65538737    -0.19500
F530        F  0.37894049  0.54178326  0.71047967    -0.19600
F531        F  0.36809436  0.98300006  0.74731831    -0.23400
F532        F  0.33298339  0.56078777  0.75263248    -0.25000
C533        C  0.47591194  0.78145148  0.78134140    -0.11800
C534        C  0.00221485  0.74144441  0.76702111     0.10700
C535        C  0.02794820  0.70431150  0.78533304    -0.03600
C536        C  0.02567823  0.70831874  0.81796799    -0.06400
C537        C  0.99964421  0.74876269  0.83261209    -0.17200
C538        C  0.47369351  0.78588107  0.81389959     0.01800
C539        C  0.00361082  0.74122395  0.73258713     0.11700
C540        C  0.05874656  0.66158651  0.77043531     0.62300
H541        H  0.04561551  0.68045909  0.83233002     0.11700
C542        C  0.44293261  0.82966730  0.82762535     0.54500
H543        H  0.45738840  0.80965572  0.76651981     0.07500
C544        C  0.46379553  0.72261089  0.71463463    -0.06300
C545        C  0.46705000  0.72547274  0.68198522    -0.07000
C546        C  0.00765726  0.74795478  0.66718768    -0.16600
C547        C  0.04708905  0.76724574  0.68522258    -0.02200
C548        C  0.04428716  0.76349824  0.71785052    -0.09700
C549        C  0.41769361  0.70097207  0.72991598     0.64500
H550        H  0.43738952  0.71104110  0.66767958     0.10000
C551        C  0.09244734  0.79042067  0.67013761     0.62900
H552        H  0.07362399  0.77834002  0.73224605     0.07400
F553        F  0.41482691  0.85554600  0.80508200    -0.20100
F554        F  0.47456597  0.86348097  0.84102970    -0.16300
F555        F  0.40990929  0.81216513  0.84973142    -0.19800
F556        F  0.09842240  0.68095732  0.75403995    -0.23200
F557        F  0.02921881  0.63524116  0.75020030    -0.24700
F558        F  0.07826403  0.62789337  0.79247016    -0.18700
F559        F  0.07768525  0.83419797  0.65450490    -0.21200
F560        F  0.11445373  0.75679549  0.64931832    -0.22300
F561        F  0.12847530  0.80234329  0.69192990    -0.19500
F562        F  0.38455418  0.68294017  0.70812907    -0.19600
F563        F  0.39244507  0.73794835  0.74691157    -0.23400
F564        F  0.43182070  0.66161930  0.74966396    -0.25000
C565        C  0.66519223  0.99683688  0.06581493     0.42500
N566        N  0.58674040  0.49427746  0.05504641     0.01400
C567        C  0.98943602  0.39392624  0.41920466    -0.06500
H568        H  0.60064075  0.03684828  0.39772540     0.06900
C569        C  0.97536022  0.15508595  0.46362249    -0.06800
Co570      Co  0.57054960  0.43499983  0.49712745     0.74200
N571        N  0.57941556  0.50173159  0.44113228    -0.26000
Co572      Co  0.00102225  0.00390967  0.44227621     0.74100
C573        C  0.50085091  0.16089376  0.43387224     0.42600
N574        N  0.97913948  0.10043230  0.03723240     0.01000
N575        N  0.99774954  0.08234495  0.44477622     0.01100
N576        N  0.53187413  0.35036819  0.45712251    -0.46900
H577        H  0.68781318  0.45407430  0.02139798     0.06900
N578        N  0.60566945  0.47708689  0.46288710     0.01400
N579        N  0.92258464  0.00529111  0.44468440     0.01100
C580        C  0.84432517  0.50122865  0.43350348     0.42700
N581        N  0.00441539  0.07408050  0.05870072    -0.25500
C582        C  0.53529181  0.34471726  0.03682343    -0.06400
N583        N  0.61862248  0.00854038  0.07677289    -0.46600
N584        N  0.89119856  0.48976107  0.42302447    -0.46800
C585        C  0.01095814  0.33883109  0.06692286     0.42500
N586        N  0.52978713  0.39929448  0.46280940     0.01400
N587        N  0.92992811  0.99775071  0.05881484    -0.25500
N588        N  0.60977643  0.47175444  0.03145681    -0.26000
N589        N  0.90331990  0.02244591  0.03720922     0.01000
H590        H  0.90929149  0.46039930  0.10158948     0.06900
H591        H  0.82053499  0.04426313  0.47771408     0.06900
N592        N  0.50495795  0.42556982  0.44112287    -0.26000
N593        N  0.97459502  0.10518510  0.46823480    -0.25700
N594        N  0.51175152  0.41731027  0.05541745     0.01400
C595        C  0.66105297  0.00093612  0.43037667     0.42800
C596        C  0.52099590  0.10567779  0.08031723    -0.06900
N597        N  0.89905379  0.02793740  0.46807840    -0.25700
H598        H  0.95726729  0.18343880  0.47816698     0.06900
N599        N  0.65460358  0.47568860  0.45729933    -0.46900
H600        H  0.54116586  0.09492776  0.10137298     0.06900
C601        C  0.84839593  0.49641471  0.06936873     0.42600
C602        C  0.65951939  0.47229938  0.03595423    -0.06400
Co603      Co  0.50831058  0.49576608  0.05767561     0.73800
N604        N  0.97782563  0.14943075  0.04278749    -0.46600
C605        C  0.00692693  0.34419636  0.43016679     0.42900
N606        N  0.99806483  0.38532031  0.07743007    -0.46600
Co607      Co  0.93822904  0.06475612  0.00280335     0.73900
C608        C  0.84932722  0.02662601  0.46326177    -0.06900
C609        C  0.61124120  0.01773707  0.41921466    -0.06500
N610        N  0.53467274  0.39455944  0.03184756    -0.26000
N611        N  0.51288509  0.11433417  0.42319011    -0.46800
H612        H  0.96986448  0.40467576  0.39793621     0.06900
C613        C  0.89840764  0.48035411  0.08044322    -0.06900
Cl614      Cl  0.50443217  0.99985229  0.99998197    -0.49900
C615        C  0.50383102  0.15548287  0.06938957     0.42600
H616        H  0.55391700  0.31657449  0.02237355     0.06900
N617        N  0.85434263  0.02258835  0.04268870    -0.46600
C618        C  0.50844862  0.24824392  0.13284315     0.80300
N619        N  0.50756509  0.20387415  0.11741787    -0.78000
C620        C  0.50674120  0.20329597  0.08584590     0.82700
N621        N  0.50708492  0.24727677  0.06960888    -0.78000
C622        C  0.50796149  0.29183694  0.08483896     0.82800
N623        N  0.50818758  0.29230961  0.11650182    -0.79700
C624        C  0.50071333  0.25027681  0.36726174     0.80300
N625        N  0.50205025  0.29483373  0.38248186    -0.78000
C626        C  0.50421128  0.29606725  0.41402622     0.82700
N627        N  0.50486416  0.25241375  0.43061102    -0.78000
C628        C  0.50369893  0.20761589  0.41572016     0.82800
N629        N  0.50207632  0.20660679  0.38409535    -0.79700
C630        C  0.75363287  0.48937515  0.13232536     0.80300
N631        N  0.71040355  0.49418369  0.11549614    -0.78000
C632        C  0.71175444  0.49715020  0.08396340     0.82700
N633        N  0.75668719  0.49676323  0.06906762    -0.78000
C634        C  0.80017745  0.49297253  0.08556487     0.82800
N635        N  0.79856242  0.48883792  0.11708116    -0.79700
C636        C  0.75545378  0.49322941  0.36726623     0.80300
N637        N  0.71054210  0.49794071  0.38226728    -0.78000
C638        C  0.70911795  0.50102424  0.41379497     0.82700
N639        N  0.75270716  0.50070602  0.43026205    -0.78000
C640        C  0.79772020  0.49726742  0.41544366     0.82800
N641        N  0.79904765  0.49311360  0.38391372    -0.79700
C642        C  0.77719565  0.44892665  0.28414478    -0.11800
C643        C  0.75566168  0.48969776  0.26732198     0.10700
C644        C  0.73236955  0.03073432  0.28327942    -0.03600
C645        C  0.73347084  0.03049220  0.31603276    -0.06400
C646        C  0.75648253  0.49048948  0.33293096    -0.17200
C647        C  0.77769676  0.44837447  0.31692026     0.01800
C648        C  0.75674831  0.48779577  0.23287279     0.11700
C649        C  0.70615814  0.07423056  0.26573960     0.62300
H650        H  0.71642932  0.06172877  0.32880773     0.11700
C651        C  0.79907043  0.40242364  0.33430746     0.54500
H652        H  0.79367256  0.41750000  0.27127788     0.07500
C653        C  0.79766239  0.00553365  0.21558691    -0.06300
C654        C  0.79459581  0.00552935  0.18292791    -0.07000
C655        C  0.75263290  0.48734295  0.16705769    -0.16600
C656        C  0.71241865  0.46742300  0.18471086    -0.02200
C657        C  0.71552797  0.46814178  0.21744790    -0.09700
C658        C  0.84488106  0.02310360  0.23159104     0.64500
H659        H  0.82536222  0.02003718  0.16950458     0.10000
C660        C  0.66651931  0.44500499  0.16970838     0.62900
H661        H  0.68520019  0.45412134  0.23151043     0.07400
F662        F  0.84203435  0.41466269  0.35028455    -0.20100
F663        F  0.81146136  0.36331968  0.31426362    -0.16300
F664        F  0.76385927  0.38540104  0.35520094    -0.19800
F665        F  0.66723729  0.05654681  0.24800472    -0.23200
F666        F  0.73977196  0.09737519  0.24630122    -0.24700
F667        F  0.68621177  0.11026001  0.28580312    -0.18700
F668        F  0.63652882  0.42168294  0.19141081    -0.21200
F669        F  0.68144455  0.40917008  0.14804853    -0.22300
F670        F  0.63731037  0.48264000  0.15538744    -0.19500
F671        F  0.87894052  0.04178312  0.21047973    -0.19600
F672        F  0.86809441  0.48300043  0.24731823    -0.23400
F673        F  0.83298348  0.06078733  0.25263260    -0.25000
C674        C  0.97591204  0.28145156  0.28134145    -0.11800
C675        C  0.50221512  0.24144466  0.26702109     0.10700
C676        C  0.52794855  0.20431180  0.28533303    -0.03600
C677        C  0.52567848  0.20831914  0.31796793    -0.06400
C678        C  0.49964439  0.24876290  0.33261209    -0.17200
C679        C  0.97369348  0.28588122  0.31389960     0.01800
C680        C  0.50361104  0.24122415  0.23258712     0.11700
C681        C  0.55874697  0.16158688  0.27043528     0.62300
H682        H  0.54561604  0.18045923  0.33233010     0.11700
C683        C  0.94293242  0.32966734  0.32762535     0.54500
H684        H  0.95738829  0.30965595  0.26651973     0.07500
C685        C  0.96379570  0.22261086  0.21463468    -0.06300
C686        C  0.96705003  0.22547254  0.18198521    -0.07000
C687        C  0.50765738  0.24795474  0.16718766    -0.16600
C688        C  0.54708915  0.26724585  0.18522251    -0.02200
C689        C  0.54428731  0.26349849  0.21785046    -0.09700
C690        C  0.91769385  0.20097198  0.22991608     0.64500
H691        H  0.93738996  0.21104100  0.16767978     0.10000
C692        C  0.59244742  0.29042072  0.17013749     0.62900
H693        H  0.57362412  0.27834037  0.23224596     0.07400
F694        F  0.91482675  0.35554602  0.30508197    -0.20100
F695        F  0.97456562  0.36348107  0.34102979    -0.16300
F696        F  0.90990904  0.31216505  0.34973134    -0.19800
F697        F  0.59842279  0.18095777  0.25403993    -0.23200
F698        F  0.52921926  0.13524151  0.25020026    -0.24700
F699        F  0.57826448  0.12789374  0.29247012    -0.18700
F700        F  0.57768533  0.33419800  0.15450476    -0.21200
F701        F  0.61445376  0.25679549  0.14931820    -0.22300
F702        F  0.62847543  0.30234335  0.19192973    -0.19500
F703        F  0.88455450  0.18293986  0.20812920    -0.19600
F704        F  0.89244519  0.23794830  0.24691157    -0.23400
F705        F  0.93182104  0.16161936  0.24966414    -0.25000
C706        C  0.66519223  0.99683693  0.56581493     0.42500
N707        N  0.58674034  0.49427754  0.55504644     0.01400
C708        C  0.98943618  0.39392606  0.91920472    -0.06500
H709        H  0.60064088  0.03684811  0.89772551     0.06900
C710        C  0.97536032  0.15508586  0.96362251    -0.06800
Co711      Co  0.57054968  0.43499971  0.99712746     0.74200
N712        N  0.57941567  0.50173149  0.94113228    -0.26000
Co713      Co  0.00102229  0.00390954  0.94227618     0.74100
C714        C  0.50085096  0.16089366  0.93387224     0.42600
N715        N  0.97913949  0.10043241  0.53723244     0.01000
N716        N  0.99774956  0.08234482  0.94477620     0.01100
N717        N  0.53187425  0.35036807  0.95712251    -0.46900
H718        H  0.68781358  0.45407417  0.52139776     0.06900
N719        N  0.60566954  0.47708679  0.96288710     0.01400
N720        N  0.92258470  0.00529098  0.94468433     0.01100
C721        C  0.84432529  0.50122859  0.93350343     0.42700
N722        N  0.00441536  0.07408063  0.55870074    -0.25500
C723        C  0.53529179  0.34471737  0.53682339    -0.06400
N724        N  0.61862247  0.00854045  0.57677290    -0.46600
N725        N  0.89119867  0.48976097  0.92302442    -0.46800
C726        C  0.01095818  0.33883122  0.56692285     0.42500
N727        N  0.52978724  0.39929436  0.96280940     0.01400
N728        N  0.92992810  0.99775082  0.55881486    -0.25500
N729        N  0.60977639  0.47175454  0.53145679    -0.26000
N730        N  0.90331989  0.02244603  0.53720926     0.01000
H731        H  0.90929145  0.46039943  0.60158952     0.06900
H732        H  0.82053475  0.04426318  0.97771418     0.06900
N733        N  0.50495809  0.42556970  0.94112286    -0.26000
N734        N  0.97459509  0.10518497  0.96823478    -0.25700
N735        N  0.51175148  0.41731036  0.55541744     0.01400
C736        C  0.66105302  0.00093595  0.93037668     0.42800
C737        C  0.52099587  0.10567785  0.58031731    -0.06900
N738        N  0.89905383  0.02793729  0.96807836    -0.25700
H739        H  0.95726750  0.18343860  0.97816695     0.06900
N740        N  0.65460369  0.47568851  0.95729933    -0.46900
H741        H  0.54116569  0.09492787  0.60137296     0.06900
C742        C  0.84839589  0.49641477  0.56936874     0.42600
C743        C  0.65951915  0.47229960  0.53595432    -0.06400
Co744      Co  0.50831055  0.49576616  0.55767563     0.73800
N745        N  0.97782564  0.14943089  0.54278752    -0.46600
C746        C  0.00692707  0.34419621  0.93016680     0.42900
N747        N  0.99806486  0.38532041  0.57743009    -0.46600
Co748      Co  0.93822901  0.06475625  0.50280338     0.73900
C749        C  0.84932741  0.02662582  0.96326166    -0.06900
C750        C  0.61124124  0.01773699  0.91921464    -0.06500
N751        N  0.53467268  0.39455955  0.53184754    -0.26000
N752        N  0.51288516  0.11433403  0.92319012    -0.46800
H753        H  0.96986448  0.40467562  0.89793614     0.06900
C754        C  0.89840761  0.48035422  0.58044325    -0.06900
Cl755      Cl  0.50443216  0.99985239  0.49998196    -0.49900
C756        C  0.50383100  0.15548295  0.56938959     0.42600
H757        H  0.55391695  0.31657462  0.52237350     0.06900
N758        N  0.85434262  0.02258845  0.54268873    -0.46600
C759        C  0.50844869  0.24824405  0.63284313     0.80300
N760        N  0.50756510  0.20387427  0.61741786    -0.78000
C761        C  0.50674120  0.20329606  0.58584590     0.82700
N762        N  0.50708495  0.24727685  0.56960887    -0.78000
C763        C  0.50796156  0.29183702  0.58483893     0.82800
N764        N  0.50818766  0.29230972  0.61650179    -0.79700
C765        C  0.50071334  0.25027667  0.86726174     0.80300
N766        N  0.50205033  0.29483361  0.88248186    -0.78000
C767        C  0.50421142  0.29606712  0.91402621     0.82700
N768        N  0.50486427  0.25241364  0.93061102    -0.78000
C769        C  0.50369900  0.20761576  0.91572015     0.82800
N770        N  0.50207634  0.20660667  0.88409536    -0.79700
C771        C  0.75363283  0.48937529  0.63232537     0.80300
N772        N  0.71040351  0.49418380  0.61549613    -0.78000
C773        C  0.71175439  0.49715026  0.58396341     0.82700
N774        N  0.75668716  0.49676326  0.56906762    -0.78000
C775        C  0.80017741  0.49297257  0.58556488     0.82800
N776        N  0.79856237  0.48883803  0.61708117    -0.79700
C777        C  0.75545390  0.49322942  0.86726620     0.80300
N778        N  0.71054220  0.49794071  0.88226727    -0.78000
C779        C  0.70911807  0.50102419  0.91379495     0.82700
N780        N  0.75270729  0.50070596  0.93026203    -0.78000
C781        C  0.79772032  0.49726738  0.91544363     0.82800
N782        N  0.79904776  0.49311359  0.88391369    -0.79700
C783        C  0.77719556  0.44892676  0.78414476    -0.11800
C784        C  0.75566167  0.48969786  0.76732196     0.10700
C785        C  0.73236951  0.03073439  0.78327943    -0.03600
C786        C  0.73347085  0.03049215  0.81603274    -0.06400
C787        C  0.75648264  0.49048953  0.83293095    -0.17200
C788        C  0.77769679  0.44837449  0.81692022     0.01800
C789        C  0.75674826  0.48779592  0.73287278     0.11700
C790        C  0.70615812  0.07423064  0.76573963     0.62300
H791        H  0.71642925  0.06172890  0.82880780     0.11700
C792        C  0.79907043  0.40242366  0.83430740     0.54500
H793        H  0.79367246  0.41749992  0.77127778     0.07500
C794        C  0.79766239  0.00553363  0.71558689    -0.06300
C795        C  0.79459564  0.00552927  0.68292796    -0.07000
C796        C  0.75263286  0.48734312  0.66705769    -0.16600
C797        C  0.71241859  0.46742317  0.68471086    -0.02200
C798        C  0.71552802  0.46814200  0.71744784    -0.09700
C799        C  0.84488110  0.02310347  0.73159101     0.64500
H800        H  0.82536249  0.02003725  0.66950445     0.10000
C801        C  0.66651924  0.44500515  0.66970837     0.62900
H802        H  0.68519989  0.45412142  0.73151052     0.07400
F803        F  0.84203440  0.41466265  0.85028445    -0.20100
F804        F  0.81146128  0.36331970  0.81426355    -0.16300
F805        F  0.76385928  0.38540107  0.85520088    -0.19800
F806        F  0.66723724  0.05654693  0.74800477    -0.23200
F807        F  0.73977193  0.09737526  0.74630125    -0.24700
F808        F  0.68621181  0.11026009  0.78580319    -0.18700
F809        F  0.63652871  0.42168312  0.69141081    -0.21200
F810        F  0.68144449  0.40917019  0.64804856    -0.22300
F811        F  0.63731031  0.48264015  0.65538740    -0.19500
F812        F  0.87894070  0.04178272  0.71047968    -0.19600
F813        F  0.86809427  0.48300037  0.74731828    -0.23400
F814        F  0.83298363  0.06078735  0.75263248    -0.25000
C815        C  0.97591192  0.28145155  0.78134142    -0.11800
C816        C  0.50221517  0.24144450  0.76702109     0.10700
C817        C  0.52794861  0.20431167  0.78533304    -0.03600
C818        C  0.52567857  0.20831890  0.81796799    -0.06400
C819        C  0.49964439  0.24876275  0.83261209    -0.17200
C820        C  0.97369347  0.28588111  0.81389962     0.01800
C821        C  0.50361112  0.24122404  0.73258710     0.11700
C822        C  0.55874713  0.16158679  0.77043532     0.62300
H823        H  0.54561590  0.18045931  0.83233002     0.11700
C824        C  0.94293254  0.32966732  0.82762538     0.54500
H825        H  0.95738836  0.30965575  0.76651984     0.07500
C826        C  0.96379567  0.22261086  0.71463465    -0.06300
C827        C  0.96704999  0.22547260  0.68198517    -0.07000
C828        C  0.50765744  0.24795488  0.66718764    -0.16600
C829        C  0.54708918  0.26724600  0.68522252    -0.02200
C830        C  0.54428742  0.26349851  0.71785050    -0.09700
C831        C  0.91769380  0.20097196  0.72991603     0.64500
H832        H  0.93739000  0.21104108  0.66767975     0.10000
C833        C  0.59244734  0.29042110  0.67013752     0.62900
H834        H  0.57362402  0.27834030  0.73224591     0.07400
F835        F  0.91482684  0.35554602  0.80508203    -0.20100
F836        F  0.97456588  0.36348100  0.84102974    -0.16300
F837        F  0.90990921  0.31216513  0.84973144    -0.19800
F838        F  0.59842292  0.18095775  0.75403997    -0.23200
F839        F  0.52921949  0.13524131  0.75020031    -0.24700
F840        F  0.57826469  0.12789374  0.79247018    -0.18700
F841        F  0.57768507  0.33419841  0.65450488    -0.21200
F842        F  0.61445377  0.25679606  0.64931815    -0.22300
F843        F  0.62847532  0.30234374  0.69192977    -0.19500
F844        F  0.88455447  0.18293985  0.70812915    -0.19600
F845        F  0.89244513  0.23794824  0.74691155    -0.23400
F846        F  0.93182098  0.16161929  0.74966406    -0.25000
C847        C  0.66519226  0.49683703  0.06581491     0.42500
N848        N  0.58674039  0.99427736  0.05504640     0.01400
C849        C  0.98943640  0.89392616  0.41920469    -0.06500
H850        H  0.60064059  0.53684834  0.39772538     0.06900
C851        C  0.97536034  0.65508605  0.46362252    -0.06800
Co852      Co  0.57054959  0.93499976  0.49712746     0.74200
N853        N  0.57941565  0.00173153  0.44113228    -0.26000
Co854      Co  0.00102215  0.50390971  0.44227619     0.74100
C855        C  0.50085082  0.66089376  0.43387226     0.42600
N856        N  0.97913953  0.60043229  0.03723240     0.01000
N857        N  0.99774948  0.58234498  0.44477621     0.01100
N858        N  0.53187414  0.85036817  0.45712249    -0.46900
H859        H  0.68781294  0.95407430  0.02139809     0.06900
N860        N  0.60566950  0.97708681  0.46288711     0.01400
N861        N  0.92258455  0.50529121  0.44468439     0.01100
C862        C  0.84432528  0.00122835  0.43350351     0.42700
N863        N  0.00441543  0.57408050  0.05870071    -0.25500
C864        C  0.53529167  0.84471718  0.03682341    -0.06400
N865        N  0.61862249  0.50854049  0.07677288    -0.46600
N866        N  0.89119868  0.98976085  0.42302449    -0.46800
C867        C  0.01095805  0.83883111  0.06692287     0.42500
N868        N  0.52978713  0.89929445  0.46280939     0.01400
N869        N  0.92992813  0.49775070  0.05881482    -0.25500
N870        N  0.60977639  0.97175435  0.03145682    -0.26000
N871        N  0.90331993  0.52244594  0.03720922     0.01000
H872        H  0.90929148  0.96039947  0.10158954     0.06900
H873        H  0.82053473  0.54426358  0.47771415     0.06900
N874        N  0.50495800  0.92556981  0.44112284    -0.26000
N875        N  0.97459505  0.60518515  0.46823480    -0.25700
N876        N  0.51175141  0.91731026  0.05541744     0.01400
C877        C  0.66105287  0.50093627  0.43037666     0.42800
C878        C  0.52099568  0.60567783  0.08031716    -0.06900
N879        N  0.89905371  0.52793754  0.46807841    -0.25700
H880        H  0.95726759  0.68343879  0.47816695     0.06900
N881        N  0.65460364  0.97568847  0.45729935    -0.46900
H882        H  0.54116590  0.59492766  0.10137325     0.06900
C883        C  0.84839590  0.99641476  0.06936876     0.42600
C884        C  0.65951946  0.97229919  0.03595419    -0.06400
Co885      Co  0.50831055  0.99576609  0.05767561     0.73800
N886        N  0.97782566  0.64943075  0.04278749    -0.46600
C887        C  0.00692731  0.84419633  0.43016675     0.42900
N888        N  0.99806478  0.88532033  0.07743009    -0.46600
Co889      Co  0.93822908  0.56475617  0.00280335     0.73900
C890        C  0.84932724  0.52662621  0.46326171    -0.06900
C891        C  0.61124108  0.51773714  0.41921466    -0.06500
N892        N  0.53467259  0.89455942  0.03184756    -0.26000
N893        N  0.51288498  0.61433415  0.42319014    -0.46800
H894        H  0.96986474  0.90467577  0.39793601     0.06900
C895        C  0.89840762  0.98035420  0.08044326    -0.06900
Cl896      Cl  0.50443219  0.49985228  0.99998197    -0.49900
C897        C  0.50383093  0.65548287  0.06938958     0.42600
H898        H  0.55391674  0.81657457  0.02237362     0.06900
N899        N  0.85434266  0.52258837  0.04268869    -0.46600
C900        C  0.50844849  0.74824391  0.13284316     0.80300
N901        N  0.50756497  0.70387415  0.11741788    -0.78000
C902        C  0.50674107  0.70329597  0.08584590     0.82700
N903        N  0.50708476  0.74727677  0.06960890    -0.78000
C904        C  0.50796132  0.79183693  0.08483897     0.82800
N905        N  0.50818743  0.79230960  0.11650183    -0.79700
C906        C  0.50071324  0.75027673  0.36726173     0.80300
N907        N  0.50205024  0.79483367  0.38248183    -0.78000
C908        C  0.50421132  0.79606722  0.41402618     0.82700
N909        N  0.50486414  0.75241375  0.43061101    -0.78000
C910        C  0.50369885  0.70761586  0.41572017     0.82800
N911        N  0.50207621  0.70660673  0.38409537    -0.79700
C912        C  0.75363285  0.98937516  0.13232538     0.80300
N913        N  0.71040352  0.99418363  0.11549615    -0.78000
C914        C  0.71175442  0.99715012  0.08396341     0.82700
N915        N  0.75668716  0.99676320  0.06906764    -0.78000
C916        C  0.80017742  0.99297258  0.08556489     0.82800
N917        N  0.79856239  0.98883799  0.11708118    -0.79700
C918        C  0.75545393  0.99322905  0.36726625     0.80300
N919        N  0.71054224  0.99794045  0.38226730    -0.78000
C920        C  0.70911807  0.00102404  0.41379498     0.82700
N921        N  0.75270728  0.00070578  0.43026207    -0.78000
C922        C  0.79772032  0.99726709  0.41544370     0.82800
N923        N  0.79904779  0.99311322  0.38391375    -0.79700
C924        C  0.77719571  0.94892625  0.28414477    -0.11800
C925        C  0.75566172  0.98969742  0.26732200     0.10700
C926        C  0.73236940  0.53073462  0.28327938    -0.03600
C927        C  0.73347062  0.53049256  0.31603274    -0.06400
C928        C  0.75648268  0.99048912  0.33293099    -0.17200
C929        C  0.77769690  0.94837412  0.31692027     0.01800
C930        C  0.75674835  0.98779550  0.23287281     0.11700
C931        C  0.70615793  0.57423079  0.26573954     0.62300
H932        H  0.71642912  0.56172896  0.32880764     0.11700
C933        C  0.79907067  0.90242332  0.33430745     0.54500
H934        H  0.79367252  0.91749974  0.27127791     0.07500
C935        C  0.79766237  0.50553384  0.21558687    -0.06300
C936        C  0.79459577  0.50552941  0.18292788    -0.07000
C937        C  0.75263290  0.98734292  0.16705771    -0.16600
C938        C  0.71241864  0.96742292  0.18471087    -0.02200
C939        C  0.71552811  0.96814160  0.21744786    -0.09700
C940        C  0.84488106  0.52310388  0.23159096     0.64500
H941        H  0.82536229  0.52003725  0.16950450     0.10000
C942        C  0.66651922  0.94500507  0.16970837     0.62900
H943        H  0.68520001  0.95412096  0.23151052     0.07400
F944        F  0.84203463  0.91466243  0.35028449    -0.20100
F945        F  0.81146158  0.86331937  0.31426360    -0.16300
F946        F  0.76385959  0.88540068  0.35520097    -0.19800
F947        F  0.66723708  0.55654696  0.24800470    -0.23200
F948        F  0.73977171  0.59737541  0.24630113    -0.24700
F949        F  0.68621157  0.61026027  0.28580305    -0.18700
F950        F  0.63652864  0.92168305  0.19141079    -0.21200
F951        F  0.68144435  0.90917016  0.14804850    -0.22300
F952        F  0.63731039  0.98264020  0.15538747    -0.19500
F953        F  0.87894052  0.54178333  0.21047961    -0.19600
F954        F  0.86809438  0.98300008  0.24731825    -0.23400
F955        F  0.83298347  0.56078769  0.25263245    -0.25000
C956        C  0.97591188  0.78145147  0.28134146    -0.11800
C957        C  0.50221508  0.74144448  0.26702110     0.10700
C958        C  0.52794846  0.70431159  0.28533306    -0.03600
C959        C  0.52567838  0.70831898  0.31796795    -0.06400
C960        C  0.49964430  0.74876275  0.33261210    -0.17200
C961        C  0.97369350  0.78588121  0.31389961     0.01800
C962        C  0.50361101  0.74122397  0.23258713     0.11700
C963        C  0.55874678  0.66158659  0.27043533     0.62300
H964        H  0.54561592  0.68045906  0.33233015     0.11700
C965        C  0.94293274  0.82966750  0.32762538     0.54500
H966        H  0.95738817  0.80965599  0.26651974     0.07500
C967        C  0.96379526  0.72261092  0.21463465    -0.06300
C968        C  0.96704970  0.72547262  0.18198521    -0.07000
C969        C  0.50765729  0.74795470  0.16718768    -0.16600
C970        C  0.54708915  0.76724562  0.18522252    -0.02200
C971        C  0.54428747  0.76349825  0.21785053    -0.09700
C972        C  0.91769326  0.70097229  0.22991603     0.64500
H973        H  0.93738944  0.71104113  0.16767969     0.10000
C974        C  0.59244746  0.79042040  0.17013749     0.62900
H975        H  0.57362398  0.77833981  0.23224585     0.07400
F976        F  0.91482720  0.85554637  0.30508202    -0.20100
F977        F  0.97456619  0.86348103  0.34102979    -0.16300
F978        F  0.90990928  0.81216542  0.34973139    -0.19800
F979        F  0.59842259  0.68095737  0.25403991    -0.23200
F980        F  0.52921898  0.63524120  0.25020037    -0.24700
F981        F  0.57826428  0.62789350  0.29247019    -0.18700
F982        F  0.57768544  0.83419767  0.15450473    -0.21200
F983        F  0.61445377  0.75679510  0.14931823    -0.22300
F984        F  0.62847546  0.80234302  0.19192972    -0.19500
F985        F  0.88455386  0.68294027  0.20812915    -0.19600
F986        F  0.89244474  0.73794876  0.24691148    -0.23400
F987        F  0.93182022  0.66161966  0.24966414    -0.25000
C988        C  0.66519223  0.49683709  0.56581492     0.42500
N989        N  0.58674037  0.99427746  0.55504643     0.01400
C990        C  0.98943627  0.89392610  0.91920457    -0.06500
H991        H  0.60064076  0.53684824  0.89772549     0.06900
C992        C  0.97536044  0.65508590  0.96362252    -0.06800
Co993      Co  0.57054960  0.93499964  0.99712746     0.74200
N994        N  0.57941570  0.00173141  0.94113229    -0.26000
Co995      Co  0.00102228  0.50390956  0.94227618     0.74100
C996        C  0.50085085  0.66089365  0.93387224     0.42600
N997        N  0.97913954  0.60043242  0.53723244     0.01000
N998        N  0.99774961  0.58234484  0.94477620     0.01100
N999        N  0.53187410  0.85036804  0.95712247    -0.46900
H1000       H  0.68781318  0.95407421  0.52139795     0.06900
N1001       N  0.60566952  0.97708667  0.96288711     0.01400
N1002       N  0.92258466  0.50529108  0.94468436     0.01100
C1003       C  0.84432532  0.00122826  0.93350346     0.42700
N1004       N  0.00441540  0.57408063  0.55870074    -0.25500
C1005       C  0.53529168  0.84471724  0.53682335    -0.06400
N1006       N  0.61862243  0.50854053  0.57677290    -0.46600
N1007       N  0.89119874  0.98976077  0.92302443    -0.46800
C1008       C  0.01095815  0.83883123  0.56692289     0.42500
N1009       N  0.52978711  0.89929436  0.96280937     0.01400
N1010       N  0.92992810  0.49775083  0.55881486    -0.25500
N1011       N  0.60977638  0.97175444  0.53145682    -0.26000
N1012       N  0.90331989  0.52244607  0.53720926     0.01000
H1013       H  0.90929145  0.96039953  0.60158955     0.06900
H1014       H  0.82053506  0.54426338  0.97771403     0.06900
N1015       N  0.50495802  0.92556970  0.94112285    -0.26000
N1016       N  0.97459516  0.60518500  0.96823479    -0.25700
N1017       N  0.51175142  0.91731034  0.55541743     0.01400
C1018       C  0.66105298  0.50093620  0.93037667     0.42800
C1019       C  0.52099576  0.60567790  0.58031723    -0.06900
N1020       N  0.89905384  0.52793741  0.96807836    -0.25700
H1021       H  0.95726767  0.68343861  0.97816694     0.06900
N1022       N  0.65460368  0.97568828  0.95729934    -0.46900
H1023       H  0.54116589  0.59492781  0.60137315     0.06900
C1024       C  0.84839589  0.99641482  0.56936877     0.42600
C1025       C  0.65951931  0.97229933  0.53595426    -0.06400
Co1026     Co  0.50831055  0.99576617  0.55767562     0.73800
N1027       N  0.97782570  0.64943089  0.54278751    -0.46600
C1028       C  0.00692729  0.84419622  0.93016674     0.42900
N1029       N  0.99806484  0.88532041  0.57743011    -0.46600
Co1030     Co  0.93822900  0.56475632  0.50280339     0.73900
C1031       C  0.84932728  0.52662617  0.96326170    -0.06900
C1032       C  0.61124118  0.51773712  0.91921463    -0.06500
N1033       N  0.53467258  0.89455952  0.53184754    -0.26000
N1034       N  0.51288502  0.61433403  0.92319010    -0.46800
H1035       H  0.96986488  0.90467554  0.89793629     0.06900
C1036       C  0.89840761  0.98035426  0.58044328    -0.06900
Cl1037     Cl  0.50443212  0.49985240  0.49998198    -0.49900
C1038       C  0.50383095  0.65548296  0.56938960     0.42600
H1039       H  0.55391665  0.81657477  0.52237359     0.06900
N1040       N  0.85434262  0.52258846  0.54268872    -0.46600
C1041       C  0.50844859  0.74824404  0.63284315     0.80300
N1042       N  0.50756506  0.70387426  0.61741787    -0.78000
C1043       C  0.50674115  0.70329606  0.58584590     0.82700
N1044       N  0.50708483  0.74727685  0.56960888    -0.78000
C1045       C  0.50796140  0.79183702  0.58483894     0.82800
N1046       N  0.50818753  0.79230971  0.61650181    -0.79700
C1047       C  0.50071322  0.75027662  0.86726173     0.80300
N1048       N  0.50205019  0.79483359  0.88248184    -0.78000
C1049       C  0.50421123  0.79606713  0.91402618     0.82700
N1050       N  0.50486408  0.75241364  0.93061101    -0.78000
C1051       C  0.50369883  0.70761576  0.91572015     0.82800
N1052       N  0.50207620  0.70660665  0.88409536    -0.79700
C1053       C  0.75363280  0.98937522  0.63232539     0.80300
N1054       N  0.71040350  0.99418369  0.61549615    -0.78000
C1055       C  0.71175440  0.99715016  0.58396342     0.82700
N1056       N  0.75668715  0.99676325  0.56906764    -0.78000
C1057       C  0.80017740  0.99297263  0.58556490     0.82800
N1058       N  0.79856237  0.98883803  0.61708119    -0.79700
C1059       C  0.75545393  0.99322897  0.86726622     0.80300
N1060       N  0.71054224  0.99794031  0.88226729    -0.78000
C1061       C  0.70911810  0.00102384  0.91379497     0.82700
N1062       N  0.75270732  0.00070560  0.93026205    -0.78000
C1063       C  0.79772036  0.99726698  0.91544365     0.82800
N1064       N  0.79904779  0.99311315  0.88391371    -0.79700
C1065       C  0.77719558  0.94892638  0.78414476    -0.11800
C1066       C  0.75566167  0.98969750  0.76732198     0.10700
C1067       C  0.73236951  0.53073477  0.78327939    -0.03600
C1068       C  0.73347092  0.53049250  0.81603267    -0.06400
C1069       C  0.75648265  0.99048910  0.83293097    -0.17200
C1070       C  0.77769682  0.94837410  0.81692023     0.01800
C1071       C  0.75674827  0.98779561  0.73287280     0.11700
C1072       C  0.70615805  0.57423097  0.76573959     0.62300
H1073       H  0.71642921  0.56172951  0.82880782     0.11700
C1074       C  0.79907056  0.90242326  0.83430738     0.54500
H1075       H  0.79367250  0.91749960  0.77127778     0.07500
C1076       C  0.79766236  0.50553393  0.71558686    -0.06300
C1077       C  0.79459578  0.50552955  0.68292787    -0.07000
C1078       C  0.75263285  0.98734297  0.66705769    -0.16600
C1079       C  0.71241855  0.96742303  0.68471086    -0.02200
C1080       C  0.71552809  0.96814184  0.71744780    -0.09700
C1081       C  0.84488105  0.52310385  0.73159098     0.64500
H1082       H  0.82536220  0.52003732  0.66950454     0.10000
C1083       C  0.66651921  0.94500508  0.66970836     0.62900
H1084       H  0.68519965  0.95412114  0.73151060     0.07400
F1085       F  0.84203451  0.91466232  0.85028444    -0.20100
F1086       F  0.81146149  0.86331935  0.81426351    -0.16300
F1087       F  0.76385944  0.88540057  0.85520085    -0.19800
F1088       F  0.66723717  0.55654719  0.74800475    -0.23200
F1089       F  0.73977181  0.59737563  0.74630118    -0.24700
F1090       F  0.68621170  0.61026043  0.78580313    -0.18700
F1091       F  0.63652866  0.92168304  0.69141079    -0.21200
F1092       F  0.68144445  0.90917012  0.64804855    -0.22300
F1093       F  0.63731030  0.98264010  0.65538739    -0.19500
F1094       F  0.87894059  0.54178317  0.71047965    -0.19600
F1095       F  0.86809425  0.98299996  0.74731832    -0.23400
F1096       F  0.83298351  0.56078772  0.75263245    -0.25000
C1097       C  0.97591180  0.78145148  0.78134144    -0.11800
C1098       C  0.50221509  0.74144443  0.76702110     0.10700
C1099       C  0.52794845  0.70431155  0.78533305    -0.03600
C1100       C  0.52567845  0.70831874  0.81796802    -0.06400
C1101       C  0.49964427  0.74876268  0.83261208    -0.17200
C1102       C  0.97369349  0.78588114  0.81389962     0.01800
C1103       C  0.50361105  0.74122395  0.73258711     0.11700
C1104       C  0.55874690  0.66158659  0.77043533     0.62300
H1105       H  0.54561565  0.68045928  0.83232998     0.11700
C1106       C  0.94293282  0.82966751  0.82762540     0.54500
H1107       H  0.95738823  0.80965578  0.76651983     0.07500
C1108       C  0.96379533  0.72261088  0.71463461    -0.06300
C1109       C  0.96704978  0.72547265  0.68198516    -0.07000
C1110       C  0.50765734  0.74795484  0.66718765    -0.16600
C1111       C  0.54708918  0.76724579  0.68522253    -0.02200
C1112       C  0.54428741  0.76349827  0.71785050    -0.09700
C1113       C  0.91769337  0.70097212  0.72991594     0.64500
H1114       H  0.93738964  0.71104117  0.66767964     0.10000
C1115       C  0.59244740  0.79042075  0.67013752     0.62900
H1116       H  0.57362412  0.77833996  0.73224593     0.07400
F1117       F  0.91482725  0.85554638  0.80508206    -0.20100
F1118       F  0.97456638  0.86348100  0.84102974    -0.16300
F1119       F  0.90990941  0.81216551  0.84973146    -0.19800
F1120       F  0.59842274  0.68095746  0.75403999    -0.23200
F1121       F  0.52921922  0.63524120  0.75020030    -0.24700
F1122       F  0.57826438  0.62789349  0.79247019    -0.18700
F1123       F  0.57768524  0.83419810  0.65450489    -0.21200
F1124       F  0.61445372  0.75679567  0.64931814    -0.22300
F1125       F  0.62847544  0.80234329  0.69192977    -0.19500
F1126       F  0.88455400  0.68294019  0.70812900    -0.19600
F1127       F  0.89244479  0.73794847  0.74691145    -0.23400
F1128       F  0.93182036  0.66161939  0.74966397    -0.25000
loop_ 
_geom_bond_atom_site_label_1 
_geom_bond_atom_site_label_2 
_geom_bond_distance 
_geom_bond_site_symmetry_2 
_ccdc_geom_bond_type 
C1           N19   1.351   1_565  A
C1          C320   1.453       .  S
C1          C350   1.462       .  S
N2           N24   1.320       .  A
N2          N301   1.326       .  A
N2          Co39   2.088       .  S
C3          N592   1.341       .  A
C3           C41   1.459       .  S
C3           H48   1.081       .  S
H4           C45   1.081       .  S
C5           N29   1.340       .  A
C5          C573   1.456       .  S
C5           H34   1.081       .  S
Co6          N14   2.083       .  S
Co6          N22   2.083       .  S
Co6         N165   2.075       .  S
Co6         N187   2.084       .  S
Co6        Cl473   2.419       .  S
N7          C327   1.344       .  A
N7           N14   1.320       .  A
N7         Co854   2.084       .  S
Co8          N11   2.086       .  S
Co8          N15   2.087       .  S
Co8         N853   2.084       .  S
Co8         N874   2.081   1_545  S
Co8        Cl755   2.480   1_545  S
C9           N47   1.350       .  A
C9           C64   1.465       .  S
C9          C569   1.456   1_455  S
N10          N17   1.321       .  A
N10          N40   1.324       .  A
N10         Co43   2.088       .  S
N11          N29   1.321       .  A
N11         N611   1.326       .  A
N12         C605   1.347       .  A
N12          N22   1.324       .  A
H13          C38   1.081       .  S
N14          N35   1.323       .  A
N15          N33   1.321       .  A
N15         N302   1.327   1_545  A
C16          N20   1.350       .  A
C16          C76   1.468       .  S
C16         C326   1.457       .  S
N17         C596   1.341       .  A
N17        Co885   2.080   1_545  S
C18          N46   1.339       .  A
C18         C585   1.456       .  S
C18          H52   1.081       .  S
N19         N284   1.326   1_545  A
N20         N297   1.327       .  A
C21          N42   1.350       .  A
C21         C582   1.456       .  S
C21         C622   1.466       .  S
N22          N28   1.320       .  A
N23         C331   1.343       .  A
N23          N25   1.321   1_565  A
N23        Co885   2.084       .  S
N24          C38   1.337       .  A
N24        Co147   2.075   1_554  S
N25          N53   1.324       .  A
N25         Co43   2.089       .  S
H26          C49   1.081       .  S
H27          C44   1.081       .  S
N28         C567   1.341   1_455  A
N28        Co854   2.081       .  S
N29        Co184   2.085       .  S
N30          N46   1.320       .  A
N30         N606   1.327   1_455  A
N30         Co39   2.086       .  S
C31         N317   1.346   1_545  A
C31          C45   1.461       .  S
C31         C356   1.464       .  S
C32         N581   1.341       .  A
C32          C51   1.457       .  S
C32          H36   1.081       .  S
N33          C44   1.340       .  A
N33        Co184   2.087       .  S
N35         C313   1.346       .  A
C37         N335   1.348       .  A
C37          C49   1.459       .  S
C37          C70   1.465       .  S
C38         C283   1.453       .  S
Co39        N863   2.080       .  S
Co39        N869   2.084   1_455  S
Co39       Cl332   2.480   1_554  S
N40         C615   1.348       .  A
C41         N576   1.347       .  A
C41         C626   1.463       .  S
N42         N594   1.327       .  A
Co43        N170   2.085   1_554  S
Co43        N174   2.087   1_554  S
Co43       Cl614   2.421   1_544  S
C44         C298   1.457       .  S
C45         N289   1.344       .  A
N46        Co147   2.084   1_554  S
N47         N575   1.326   1_455  A
C49         N305   1.343       .  A
Cl50       Co429   2.419       .  S
Cl50       Co713   2.480   1_565  S
Cl50       Co321   2.480   1_556  S
Cl50       Co607   2.421   1_466  S
C51         N604   1.348   1_455  A
C51          C56   1.463       .  S
N53         C319   1.348   1_545  A
C54          N55   1.357       .  A
C54          N59   1.360       .  A
C54         C123   1.474       .  S
N55          C56   1.355       .  A
C56          N57   1.356       .  A
N57          C58   1.358       .  A
C58          N59   1.359       .  A
C58         C585   1.466       .  S
C60          N61   1.358       .  A
C60          N65   1.362       .  A
C60         C114   1.488   1_455  S
N61          C62   1.356       .  A
C62          N63   1.356       .  A
C62         C605   1.463       .  S
N63          C64   1.357       .  A
C64          N65   1.358       .  A
C66          N67   1.358       .  A
C66          N71   1.363       .  A
C66          C91   1.492       .  S
N67          C68   1.356       .  A
C68          N69   1.356       .  A
C68         C283   1.462       .  S
N69          C70   1.355       .  A
C70          N71   1.357       .  A
C72          N73   1.360       .  A
C72          N77   1.361       .  A
C72          C82   1.476       .  S
N73          C74   1.357       .  A
C74          N75   1.356       .  A
C74         C313   1.464       .  S
N75          C76   1.357       .  A
C76          N77   1.359       .  A
C78          H88   1.084       .  S
C78          C79   1.401       .  A
C78          C83   1.407       .  A
C79          C84   1.480       .  S
C79         C362   1.415       .  A
C80          C81   1.406       .  A
C80         C361   1.415   1_545  A
C80          C85   1.521       .  S
C81          H86   1.084       .  S
C81         C364   1.403   1_545  A
C82          C83   1.417       .  A
C82         C363   1.403       .  A
C83          C87   1.518       .  S
C84          C93   1.399       .  A
C84         C371   1.411       .  A
C85         F101   1.382       .  S
C85         F102   1.382       .  S
C85         F103   1.384       .  S
C87          F98   1.382       .  S
C87          F99   1.384       .  S
C87         F100   1.383       .  S
C89          C90   1.404       .  A
C89         C366   1.411   1_545  A
C89          C94   1.521       .  S
C90          H95   1.082       .  S
C90         C373   1.409   1_545  A
C91          C92   1.427       .  A
C91         C372   1.409       .  A
C92          C93   1.408       .  A
C92          C96   1.522       .  S
C93          H97   1.084       .  S
C94         F107   1.385       .  S
C94         F109   1.382       .  S
C94         F390   1.382   1_545  S
C96         F104   1.385       .  S
C96         F105   1.384       .  S
C96         F106   1.383       .  S
F108        C376   1.382       .  S
C110        H120   1.083       .  S
C110        C115   1.404       .  A
C110        C675   1.397       .  A
C111        C116   1.479       .  S
C111        C112   1.413       .  A
C111        C674   1.397   1_455  A
C112        C113   1.407       .  A
C112        C117   1.520       .  S
C113        H118   1.082       .  S
C113        C114   1.409   1_455  A
C114        C679   1.425       .  A
C115        C678   1.425       .  A
C115        C119   1.520       .  S
C116        C125   1.402       .  A
C116        C685   1.415   1_455  A
C117        F133   1.382       .  S
C117        F134   1.382       .  S
C117        F135   1.384       .  S
C119        F130   1.385       .  S
C119        F131   1.382       .  S
C119        F132   1.384       .  S
C121        C122   1.406       .  A
C121        C680   1.415       .  A
C121        C126   1.521       .  S
C122        H127   1.082       .  S
C122        C687   1.404       .  A
C123        C124   1.416       .  A
C123        C686   1.404   1_455  A
C124        C125   1.406       .  A
C124        C128   1.518       .  S
C125        H129   1.082       .  S
C126        F139   1.384       .  S
C126        F140   1.382       .  S
C126        F141   1.382       .  S
C128        F136   1.382       .  S
C128        F137   1.383       .  S
C128        F138   1.385       .  S
C142        N160   1.351   1_565  A
C142        C461   1.452       .  S
C142        C491   1.462       .  S
N143        N442   1.326       .  A
N143        N165   1.320       .  A
N143       Co180   2.088       .  S
C144        N733   1.341       .  A
C144        C182   1.459       .  S
C144        H189   1.081       .  S
H145        C186   1.081       .  S
C146        N170   1.340       .  A
C146        C714   1.456       .  S
C146        H175   1.081       .  S
Co147       N155   2.083       .  S
Co147       N163   2.083       .  S
Co147      Cl332   2.419       .  S
N148        C468   1.344       .  A
N148        N155   1.320       .  A
N148       Co995   2.084       .  S
Co149       N994   2.084       .  S
Co149       N152   2.086       .  S
Co149      N1015   2.081   1_545  S
Co149       N156   2.087       .  S
Co149      Cl614   2.480   1_545  S
C150        N188   1.350       .  A
C150        C710   1.456   1_455  S
C150        C205   1.465       .  S
N151        N158   1.321       .  A
N151        N181   1.324       .  A
N151       Co184   2.088       .  S
N152        N170   1.321       .  A
N152        N752   1.326       .  A
N153        C746   1.347       .  A
N153        N163   1.324       .  A
H154        C179   1.081       .  S
N155        N176   1.323       .  A
N156        N174   1.321       .  A
N156        N443   1.327   1_545  A
C157        N161   1.350       .  A
C157        C467   1.457       .  S
C157        C217   1.468       .  S
N158        C737   1.341       .  A
N158      Co1026   2.080   1_545  S
C159        N187   1.339       .  A
C159        C726   1.456       .  S
C159        H193   1.081       .  S
N160        N425   1.326   1_545  A
N161        N438   1.327       .  A
C162        N183   1.350       .  A
C162        C723   1.456       .  S
C162        C763   1.466       .  S
N163        N169   1.320       .  A
N164        C472   1.343       .  A
N164        N166   1.321   1_565  A
N164      Co1026   2.084       .  S
N165        C179   1.337       .  A
N166        N194   1.324       .  A
N166       Co184   2.089       .  S
H167        C190   1.081       .  S
H168        C185   1.081       .  S
N169        C708   1.341   1_455  A
N169       Co995   2.081       .  S
N171        N747   1.327   1_455  A
N171        N187   1.320       .  A
N171       Co180   2.086       .  S
C172        N458   1.346   1_545  A
C172        C186   1.461       .  S
C172        C497   1.464       .  S
C173        N722   1.341       .  A
C173        C192   1.457       .  S
C173        H177   1.081       .  S
N174        C185   1.340       .  A
N176        C454   1.346       .  A
C178        N476   1.348       .  A
C178        C190   1.459       .  S
C178        C211   1.465       .  S
C179        C424   1.453       .  S
Co180      N1004   2.080       .  S
Co180      N1010   2.084   1_455  S
Co180      Cl473   2.480       .  S
N181        C756   1.348       .  A
C182        N717   1.347       .  A
C182        C767   1.463       .  S
N183        N735   1.327       .  A
Co184      Cl755   2.421   1_545  S
C185        C439   1.457       .  S
C186        N430   1.344       .  A
N188        N716   1.326   1_455  A
C190        N446   1.343       .  A
Cl191      Co288   2.419       .  S
Cl191      Co572   2.480   1_565  S
Cl191      Co462   2.480       .  S
Cl191      Co748   2.421   1_465  S
C192        N745   1.348   1_455  A
C192        C197   1.463       .  S
N194        C460   1.348   1_545  A
C195        N196   1.357       .  A
C195        N200   1.360       .  A
C195        C264   1.474       .  S
N196        C197   1.355       .  A
C197        N198   1.356       .  A
N198        C199   1.358       .  A
C199        N200   1.359       .  A
C199        C726   1.466       .  S
C201        N202   1.358       .  A
C201        N206   1.362       .  A
C201        C255   1.488   1_455  S
N202        C203   1.356       .  A
C203        N204   1.356       .  A
C203        C746   1.463       .  S
N204        C205   1.357       .  A
C205        N206   1.358       .  A
C207        N208   1.358       .  A
C207        N212   1.363       .  A
C207        C232   1.492       .  S
N208        C209   1.356       .  A
C209        N210   1.356       .  A
C209        C424   1.462       .  S
N210        C211   1.355       .  A
C211        N212   1.357       .  A
C213        N214   1.360       .  A
C213        N218   1.361       .  A
C213        C223   1.476       .  S
N214        C215   1.357       .  A
C215        N216   1.356       .  A
C215        C454   1.464       .  S
N216        C217   1.357       .  A
C217        N218   1.359       .  A
C219        H229   1.084       .  S
C219        C220   1.401       .  A
C219        C224   1.407       .  A
C220        C225   1.480       .  S
C220        C503   1.415       .  A
C221        C502   1.415   1_545  A
C221        C222   1.406       .  A
C221        C226   1.521       .  S
C222        H227   1.084       .  S
C222        C505   1.403   1_545  A
C223        C504   1.403       .  A
C223        C224   1.417       .  A
C224        C228   1.518       .  S
C225        C512   1.411       .  A
C225        C234   1.399       .  A
C226        F242   1.382       .  S
C226        F243   1.382       .  S
C226        F244   1.384       .  S
C228        F239   1.382       .  S
C228        F240   1.384       .  S
C228        F241   1.383       .  S
C230        C507   1.411   1_545  A
C230        C231   1.404       .  A
C230        C235   1.521       .  S
C231        H236   1.082       .  S
C231        C514   1.409   1_545  A
C232        C513   1.409       .  A
C232        C233   1.427       .  A
C233        C234   1.408       .  A
C233        C237   1.522       .  S
C234        H238   1.084       .  S
C235        F248   1.385       .  S
C235        F531   1.382   1_545  S
C235        F250   1.382       .  S
C237        F245   1.385       .  S
C237        F246   1.384       .  S
C237        F247   1.383       .  S
F249        C517   1.382       .  S
C251        H261   1.083       .  S
C251        C816   1.397       .  A
C251        C256   1.404       .  A
C252        C257   1.479       .  S
C252        C815   1.397   1_455  A
C252        C253   1.413       .  A
C253        C254   1.407       .  A
C253        C258   1.520       .  S
C254        H259   1.082       .  S
C254        C255   1.409   1_455  A
C255        C820   1.425       .  A
C256        C819   1.425       .  A
C256        C260   1.520       .  S
C257        C826   1.415   1_455  A
C257        C266   1.402       .  A
C258        F274   1.382       .  S
C258        F275   1.382       .  S
C258        F276   1.384       .  S
C260        F271   1.385       .  S
C260        F272   1.382       .  S
C260        F273   1.384       .  S
C262        C821   1.415       .  A
C262        C263   1.406       .  A
C262        C267   1.521       .  S
C263        H268   1.082       .  S
C263        C828   1.404       .  A
C264        C827   1.404   1_455  A
C264        C265   1.416       .  A
C265        C266   1.406       .  A
C265        C269   1.518       .  S
C266        H270   1.082       .  S
C267        F280   1.384       .  S
C267        F281   1.382       .  S
C267        F282   1.382       .  S
C269        F277   1.382       .  S
C269        F278   1.383       .  S
C269        F279   1.385       .  S
C283        N301   1.351       .  A
N284        N306   1.320       .  A
N284       Co321   2.088       .  S
C285        N874   1.341       .  A
C285        C323   1.459       .  S
C285        H330   1.081       .  S
H286        C327   1.081       .  S
C287        N311   1.340       .  A
C287        C855   1.456       .  S
C287        H316   1.081       .  S
Co288       N447   2.075       .  S
Co288       N296   2.083       .  S
Co288       N469   2.084       .  S
Co288       N304   2.083       .  S
N289        N296   1.320   1_545  A
N289       Co572   2.084       .  S
Co290       N571   2.084       .  S
Co290       N293   2.086       .  S
Co290       N592   2.081       .  S
Co290       N297   2.087       .  S
Co290     Cl1037   2.480       .  S
C291        N329   1.350       .  A
C291        C851   1.456   1_455  S
C291        C346   1.465       .  S
N292        N299   1.321       .  A
N292        N322   1.324       .  A
N292       Co325   2.088       .  S
N293        N311   1.321       .  A
N293        N893   1.326       .  A
N294        C887   1.347       .  A
N294        N304   1.324       .  A
H295        C320   1.081       .  S
N296        N317   1.323       .  A
N297        N315   1.321       .  A
C298        N302   1.350   1_545  A
C298        C358   1.468   1_545  S
N299        C878   1.341       .  A
N299       Co603   2.080       .  S
C300        N328   1.339       .  A
C300        C867   1.456       .  S
C300        H334   1.081       .  S
C303        N324   1.350       .  A
C303        C864   1.456       .  S
C303        C904   1.466       .  S
N304        N310   1.320       .  A
N305        N307   1.321       .  A
N305       Co603   2.084       .  S
N306        C320   1.337       .  A
N306       Co429   2.075   1_554  S
N307        N335   1.324       .  A
N307       Co325   2.089       .  S
H308        C331   1.081       .  S
H309        C326   1.081       .  S
N310        C849   1.341   1_455  A
N310       Co572   2.081   1_565  S
N311       Co466   2.085       .  S
N312        N888   1.327   1_455  A
N312        N328   1.320       .  A
N312       Co321   2.086       .  S
C313        C327   1.461       .  S
C314        N863   1.341       .  A
C314        C333   1.457       .  S
C314        H318   1.081       .  S
N315        C326   1.340       .  A
N315       Co466   2.087       .  S
C319        C331   1.459       .  S
C319        C352   1.465       .  S
Co321       N581   2.080   1_565  S
Co321       N587   2.084   1_455  S
N322        C897   1.348       .  A
C323        N858   1.347       .  A
C323        C908   1.463       .  S
N324        N876   1.327       .  A
Co325       N452   2.085   1_554  S
Co325       N456   2.087   1_554  S
Co325      Cl896   2.421   1_554  S
N328       Co429   2.084   1_554  S
N329        N857   1.326   1_455  A
Cl332      Co995   2.480       .  S
Cl332      Co889   2.421   1_456  S
C333        N886   1.348   1_455  A
C333        C338   1.463       .  S
C336        N337   1.357       .  A
C336        N341   1.360       .  A
C336        C405   1.474       .  S
N337        C338   1.355       .  A
C338        N339   1.356       .  A
N339        C340   1.358       .  A
C340        N341   1.359       .  A
C340        C867   1.466       .  S
C342        N343   1.358       .  A
C342        N347   1.362       .  A
C342        C396   1.488   1_455  S
N343        C344   1.356       .  A
C344        N345   1.356       .  A
C344        C887   1.463       .  S
N345        C346   1.357       .  A
C346        N347   1.358       .  A
C348        N349   1.358       .  A
C348        N353   1.363       .  A
C348        C373   1.492       .  S
N349        C350   1.356       .  A
C350        N351   1.356       .  A
N351        C352   1.355       .  A
C352        N353   1.357       .  A
C354        N355   1.360       .  A
C354        N359   1.361       .  A
C354        C364   1.476       .  S
N355        C356   1.357   1_565  A
C356        N357   1.356       .  A
N357        C358   1.357   1_545  A
C358        N359   1.359       .  A
C360        H370   1.084       .  S
C360        C361   1.401       .  A
C360        C365   1.407       .  A
C361        C366   1.480       .  S
C362        C363   1.406       .  A
C362        C367   1.521       .  S
C363        H368   1.084       .  S
C364        C365   1.417       .  A
C365        C369   1.518       .  S
C366        C375   1.399       .  A
C367        F383   1.382       .  S
C367        F384   1.382       .  S
C367        F385   1.384       .  S
C369        F380   1.382       .  S
C369        F381   1.384       .  S
C369        F382   1.383       .  S
C371        C372   1.404       .  A
C371        C376   1.521       .  S
C372        H377   1.082       .  S
C373        C374   1.427       .  A
C374        C375   1.408       .  A
C374        C378   1.522       .  S
C375        H379   1.084       .  S
C376        F389   1.385       .  S
C376        F391   1.382       .  S
C378        F386   1.385       .  S
C378        F387   1.384       .  S
C378        F388   1.383       .  S
C392        H402   1.083       .  S
C392        C957   1.397       .  A
C392        C397   1.404       .  A
C393        C398   1.479       .  S
C393        C956   1.397   1_455  A
C393        C394   1.413       .  A
C394        C395   1.407       .  A
C394        C399   1.520       .  S
C395        H400   1.082       .  S
C395        C396   1.409   1_455  A
C396        C961   1.425       .  A
C397        C960   1.425       .  A
C397        C401   1.520       .  S
C398        C967   1.415   1_455  A
C398        C407   1.402       .  A
C399        F415   1.382       .  S
C399        F416   1.382       .  S
C399        F417   1.384       .  S
C401        F412   1.385       .  S
C401        F413   1.382       .  S
C401        F414   1.384       .  S
C403        C962   1.415       .  A
C403        C404   1.406       .  A
C403        C408   1.521       .  S
C404        H409   1.082       .  S
C404        C969   1.404       .  A
C405        C968   1.404   1_455  A
C405        C406   1.416       .  A
C406        C407   1.406       .  A
C406        C410   1.518       .  S
C407        H411   1.082       .  S
C408        F421   1.384       .  S
C408        F422   1.382       .  S
C408        F423   1.382       .  S
C410        F418   1.382       .  S
C410        F419   1.383       .  S
C410        F420   1.385       .  S
C424        N442   1.351       .  A
N425        N447   1.320       .  A
N425       Co462   2.088       .  S
C426       N1015   1.341       .  A
C426        C464   1.459       .  S
C426        H471   1.081       .  S
H427        C468   1.081       .  S
C428        N452   1.340       .  A
C428        C996   1.456       .  S
C428        H457   1.081       .  S
Co429       N437   2.083       .  S
Co429       N445   2.083       .  S
N430        N437   1.320   1_545  A
N430       Co713   2.084       .  S
Co431       N712   2.084       .  S
Co431       N434   2.086       .  S
Co431       N733   2.081       .  S
Co431       N438   2.087       .  S
Co431      Cl896   2.480       .  S
C432        N470   1.350       .  A
C432        C992   1.456   1_455  S
C432        C487   1.465       .  S
N433        N440   1.321       .  A
N433        N463   1.324       .  A
N433       Co466   2.088       .  S
N434        N452   1.321       .  A
N434       N1034   1.326       .  A
N435       C1028   1.347       .  A
N435        N445   1.324       .  A
H436        C461   1.081       .  S
N437        N458   1.323       .  A
N438        N456   1.321       .  A
C439        N443   1.350   1_545  A
C439        C499   1.468   1_545  S
N440       C1019   1.341       .  A
N440       Co744   2.080       .  S
C441        N469   1.339       .  A
C441       C1008   1.456       .  S
C441        H475   1.081       .  S
C444        N465   1.350       .  A
C444       C1005   1.456       .  S
C444       C1045   1.466       .  S
N445        N451   1.320       .  A
N446        N448   1.321       .  A
N446       Co744   2.084       .  S
N447        C461   1.337       .  A
N448        N476   1.324       .  A
N448       Co466   2.089       .  S
H449        C472   1.081       .  S
H450        C467   1.081       .  S
N451        C990   1.341   1_455  A
N451       Co713   2.081   1_565  S
N453       N1029   1.327   1_455  A
N453        N469   1.320       .  A
N453       Co462   2.086       .  S
C454        C468   1.461       .  S
C455       N1004   1.341       .  A
C455        C474   1.457       .  S
C455        H459   1.081       .  S
N456        C467   1.340       .  A
C460        C472   1.459       .  S
C460        C493   1.465       .  S
Co462       N722   2.080   1_565  S
Co462       N728   2.084   1_455  S
N463       C1038   1.348       .  A
C464        N999   1.347       .  A
C464       C1049   1.463       .  S
N465       N1017   1.327       .  A
Co466     Cl1037   2.421       .  S
N470        N998   1.326   1_455  A
Cl473      Co854   2.480       .  S
Cl473     Co1030   2.421   1_455  S
C474       N1027   1.348   1_455  A
C474        C479   1.463       .  S
C477        N478   1.357       .  A
C477        N482   1.360       .  A
C477        C546   1.474       .  S
N478        C479   1.355       .  A
C479        N480   1.356       .  A
N480        C481   1.358       .  A
C481        N482   1.359       .  A
C481       C1008   1.466       .  S
C483        N484   1.358       .  A
C483        N488   1.362       .  A
C483        C537   1.488   1_455  S
N484        C485   1.356       .  A
C485        N486   1.356       .  A
C485       C1028   1.463       .  S
N486        C487   1.357       .  A
C487        N488   1.358       .  A
C489        N490   1.358       .  A
C489        N494   1.363       .  A
C489        C514   1.492       .  S
N490        C491   1.356       .  A
C491        N492   1.356       .  A
N492        C493   1.355       .  A
C493        N494   1.357       .  A
C495        N496   1.360       .  A
C495        N500   1.361       .  A
C495        C505   1.476       .  S
N496        C497   1.357   1_565  A
C497        N498   1.356       .  A
N498        C499   1.357   1_545  A
C499        N500   1.359       .  A
C501        H511   1.084       .  S
C501        C502   1.401       .  A
C501        C506   1.407       .  A
C502        C507   1.480       .  S
C503        C504   1.406       .  A
C503        C508   1.521       .  S
C504        H509   1.084       .  S
C505        C506   1.417       .  A
C506        C510   1.518       .  S
C507        C516   1.399       .  A
C508        F524   1.382       .  S
C508        F525   1.382       .  S
C508        F526   1.384       .  S
C510        F521   1.382       .  S
C510        F522   1.384       .  S
C510        F523   1.383       .  S
C512        C513   1.404       .  A
C512        C517   1.521       .  S
C513        H518   1.082       .  S
C514        C515   1.427       .  A
C515        C516   1.408       .  A
C515        C519   1.522       .  S
C516        H520   1.084       .  S
C517        F530   1.385       .  S
C517        F532   1.382       .  S
C519        F527   1.385       .  S
C519        F528   1.384       .  S
C519        F529   1.383       .  S
C533        H543   1.083       .  S
C533       C1098   1.397       .  A
C533        C538   1.404       .  A
C534        C539   1.479       .  S
C534       C1097   1.397   1_455  A
C534        C535   1.413       .  A
C535        C536   1.407       .  A
C535        C540   1.520       .  S
C536        H541   1.082       .  S
C536        C537   1.409   1_455  A
C537       C1102   1.425       .  A
C538       C1101   1.425       .  A
C538        C542   1.520       .  S
C539       C1108   1.415   1_455  A
C539        C548   1.402       .  A
C540        F556   1.382       .  S
C540        F557   1.382       .  S
C540        F558   1.384       .  S
C542        F553   1.385       .  S
C542        F554   1.382       .  S
C542        F555   1.384       .  S
C544       C1103   1.415       .  A
C544        C545   1.406       .  A
C544        C549   1.521       .  S
C545        H550   1.082       .  S
C545       C1110   1.404       .  A
C546       C1109   1.404   1_455  A
C546        C547   1.416       .  A
C547        C548   1.406       .  A
C547        C551   1.518       .  S
C548        H552   1.082       .  S
C549        F562   1.384       .  S
C549        F563   1.382       .  S
C549        F564   1.382       .  S
C551        F559   1.382       .  S
C551        F560   1.383       .  S
C551        F561   1.385       .  S
C565        N583   1.351   1_565  A
C565        C884   1.453       .  S
C565        C914   1.462       .  S
N566        N865   1.326       .  A
N566        N588   1.320       .  A
N566       Co603   2.088       .  S
C567        C605   1.459   1_655  S
C567        H612   1.081       .  S
H568        C609   1.081       .  S
C569        N593   1.340       .  A
C569        H598   1.081       .  S
Co570       N729   2.075       .  S
Co570       N578   2.083       .  S
Co570       N751   2.084       .  S
Co570       N586   2.083       .  S
Co570     Cl1037   2.419       .  S
N571        C891   1.344       .  A
N571        N578   1.320       .  A
Co572       N575   2.086   1_455  S
Co572       N579   2.087   1_455  S
C573        N611   1.350       .  A
C573        C628   1.465       .  S
N574        N581   1.321   1_655  A
N574        N604   1.324       .  A
N574       Co607   2.088       .  S
N575        N593   1.321       .  A
N576        N586   1.324       .  A
H577        C602   1.081       .  S
N578        N599   1.323       .  A
N579        N597   1.321       .  A
N579        N866   1.327   1_545  A
C580        N584   1.350       .  A
C580        C890   1.457       .  S
C580        C640   1.468       .  S
C582        N610   1.339       .  A
C582        H616   1.081       .  S
N583        N848   1.326   1_545  A
N584        N861   1.327       .  A
C585        N606   1.350   1_455  A
N586        N592   1.320       .  A
N587        C895   1.343       .  A
N587        N589   1.321   1_565  A
N588        C602   1.337       .  A
N588       Co711   2.075   1_554  S
N589        N617   1.324       .  A
N589       Co607   2.089       .  S
H590        C613   1.081       .  S
H591        C608   1.081       .  S
N593       Co748   2.085       .  S
N594        N610   1.320       .  A
N594       Co603   2.086       .  S
C595        N881   1.346   1_545  A
C595        C609   1.461       .  S
C595        C920   1.464       .  S
C596        C615   1.457       .  S
C596        H600   1.081       .  S
N597        C608   1.340       .  A
N597       Co748   2.087       .  S
N599        C877   1.346       .  A
C601        N899   1.348       .  A
C601        C613   1.459       .  S
C601        C634   1.465       .  S
C602        C847   1.453       .  S
Co603      Cl896   2.480   1_554  S
Co607       N734   2.085   1_554  S
Co607       N738   2.087   1_554  S
C608        C862   1.457       .  S
C609        N853   1.344       .  A
N610       Co711   2.084   1_554  S
C613        N869   1.343       .  A
Cl614      Co993   2.419       .  S
Cl614      Co885   2.480   1_556  S
C615        C620   1.463       .  S
N617        C883   1.348   1_545  A
C618        N619   1.357       .  A
C618        N623   1.360       .  A
C618        C687   1.474       .  S
N619        C620   1.355       .  A
C620        N621   1.356       .  A
N621        C622   1.358       .  A
C622        N623   1.359       .  A
C624        N625   1.358       .  A
C624        N629   1.362       .  A
C624        C678   1.488       .  S
N625        C626   1.356       .  A
C626        N627   1.356       .  A
N627        C628   1.357       .  A
C628        N629   1.358       .  A
C630        N631   1.358       .  A
C630        N635   1.363       .  A
C630        C655   1.492       .  S
N631        C632   1.356       .  A
C632        N633   1.356       .  A
C632        C847   1.462       .  S
N633        C634   1.355       .  A
C634        N635   1.357       .  A
C636        N637   1.360       .  A
C636        N641   1.361       .  A
C636        C646   1.476       .  S
N637        C638   1.357       .  A
C638        N639   1.356       .  A
C638        C877   1.464       .  S
N639        C640   1.357       .  A
C640        N641   1.359       .  A
C642        H652   1.084       .  S
C642        C643   1.401       .  A
C642        C647   1.407       .  A
C643        C648   1.480       .  S
C643        C926   1.415       .  A
C644        C925   1.415   1_545  A
C644        C645   1.406       .  A
C644        C649   1.521       .  S
C645        H650   1.084       .  S
C645        C928   1.403   1_545  A
C646        C927   1.403       .  A
C646        C647   1.417       .  A
C647        C651   1.518       .  S
C648        C935   1.411       .  A
C648        C657   1.399       .  A
C649        F665   1.382       .  S
C649        F666   1.382       .  S
C649        F667   1.384       .  S
C651        F662   1.382       .  S
C651        F663   1.384       .  S
C651        F664   1.383       .  S
C653        C930   1.411   1_545  A
C653        C654   1.404       .  A
C653        C658   1.521       .  S
C654        H659   1.082       .  S
C654        C937   1.409   1_545  A
C655        C936   1.409       .  A
C655        C656   1.427       .  A
C656        C657   1.408       .  A
C656        C660   1.522       .  S
C657        H661   1.084       .  S
C658        F671   1.385       .  S
C658        F954   1.382   1_545  S
C658        F673   1.382       .  S
C660        F668   1.385       .  S
C660        F669   1.384       .  S
C660        F670   1.383       .  S
F672        C940   1.382       .  S
C674        H684   1.083       .  S
C674        C679   1.404       .  A
C675        C680   1.479       .  S
C675        C676   1.413       .  A
C676        C677   1.407       .  A
C676        C681   1.520       .  S
C677        H682   1.082       .  S
C677        C678   1.409       .  A
C679        C683   1.520       .  S
C680        C689   1.402       .  A
C681        F697   1.382       .  S
C681        F698   1.382       .  S
C681        F699   1.384       .  S
C683        F694   1.385       .  S
C683        F695   1.382       .  S
C683        F696   1.384       .  S
C685        C686   1.406       .  A
C685        C690   1.521       .  S
C686        H691   1.082       .  S
C687        C688   1.416       .  A
C688        C689   1.406       .  A
C688        C692   1.518       .  S
C689        H693   1.082       .  S
C690        F703   1.384       .  S
C690        F704   1.382       .  S
C690        F705   1.382       .  S
C692        F700   1.382       .  S
C692        F701   1.383       .  S
C692        F702   1.385       .  S
C706        N724   1.351   1_565  A
C706       C1025   1.453       .  S
C706       C1055   1.462       .  S
N707       N1006   1.326       .  A
N707        N729   1.320       .  A
N707       Co744   2.088       .  S
C708        C746   1.459   1_655  S
C708        H753   1.081       .  S
H709        C750   1.081       .  S
C710        N734   1.340       .  A
C710        H739   1.081       .  S
Co711       N719   2.083       .  S
Co711       N727   2.083       .  S
Co711      Cl896   2.419       .  S
N712       C1032   1.344       .  A
N712        N719   1.320       .  A
Co713       N716   2.086   1_455  S
Co713       N720   2.087   1_455  S
C714        N752   1.350       .  A
C714        C769   1.465       .  S
N715        N722   1.321   1_655  A
N715        N745   1.324       .  A
N715       Co748   2.088       .  S
N716        N734   1.321       .  A
N717        N727   1.324       .  A
H718        C743   1.081       .  S
N719        N740   1.323       .  A
N720        N738   1.321       .  A
N720       N1007   1.327   1_545  A
C721        N725   1.350       .  A
C721       C1031   1.457       .  S
C721        C781   1.468       .  S
C723        N751   1.339       .  A
C723        H757   1.081       .  S
N724        N989   1.326   1_545  A
N725       N1002   1.327       .  A
C726        N747   1.350   1_455  A
N727        N733   1.320       .  A
N728       C1036   1.343       .  A
N728        N730   1.321   1_565  A
N729        C743   1.337       .  A
N730        N758   1.324       .  A
N730       Co748   2.089       .  S
H731        C754   1.081       .  S
H732        C749   1.081       .  S
N735        N751   1.320       .  A
N735       Co744   2.086       .  S
C736       N1022   1.346   1_545  A
C736        C750   1.461       .  S
C736       C1061   1.464       .  S
C737        C756   1.457       .  S
C737        H741   1.081       .  S
N738        C749   1.340       .  A
N740       C1018   1.346       .  A
C742       N1040   1.348       .  A
C742        C754   1.459       .  S
C742        C775   1.465       .  S
C743        C988   1.452       .  S
Co744     Cl1037   2.480       .  S
C749       C1003   1.457       .  S
C750        N994   1.344       .  A
C754       N1010   1.343       .  A
Cl755      Co852   2.419       .  S
Cl755     Co1026   2.480       .  S
C756        C761   1.463       .  S
N758       C1024   1.348   1_545  A
C759        N760   1.357       .  A
C759        N764   1.360       .  A
C759        C828   1.474       .  S
N760        C761   1.355       .  A
C761        N762   1.356       .  A
N762        C763   1.358       .  A
C763        N764   1.359       .  A
C765        N766   1.358       .  A
C765        N770   1.362       .  A
C765        C819   1.488       .  S
N766        C767   1.356       .  A
C767        N768   1.356       .  A
N768        C769   1.357       .  A
C769        N770   1.358       .  A
C771        N772   1.358       .  A
C771        N776   1.363       .  A
C771        C796   1.492       .  S
N772        C773   1.356       .  A
C773        N774   1.356       .  A
C773        C988   1.462       .  S
N774        C775   1.355       .  A
C775        N776   1.357       .  A
C777        N778   1.360       .  A
C777        N782   1.361       .  A
C777        C787   1.476       .  S
N778        C779   1.357       .  A
C779        N780   1.356       .  A
C779       C1018   1.464       .  S
N780        C781   1.357       .  A
C781        N782   1.359       .  A
C783        H793   1.084       .  S
C783        C784   1.401       .  A
C783        C788   1.407       .  A
C784        C789   1.480       .  S
C784       C1067   1.415       .  A
C785       C1066   1.415   1_545  A
C785        C786   1.406       .  A
C785        C790   1.521       .  S
C786        H791   1.084       .  S
C786       C1069   1.403   1_545  A
C787       C1068   1.403       .  A
C787        C788   1.417       .  A
C788        C792   1.518       .  S
C789       C1076   1.411       .  A
C789        C798   1.399       .  A
C790        F806   1.382       .  S
C790        F807   1.382       .  S
C790        F808   1.384       .  S
C792        F803   1.382       .  S
C792        F804   1.384       .  S
C792        F805   1.383       .  S
C794       C1071   1.411   1_545  A
C794        C795   1.404       .  A
C794        C799   1.521       .  S
C795        H800   1.082       .  S
C795       C1078   1.409   1_545  A
C796       C1077   1.409       .  A
C796        C797   1.427       .  A
C797        C798   1.408       .  A
C797        C801   1.522       .  S
C798        H802   1.084       .  S
C799        F812   1.385       .  S
C799       F1095   1.382   1_545  S
C799        F814   1.382       .  S
C801        F809   1.385       .  S
C801        F810   1.384       .  S
C801        F811   1.383       .  S
F813       C1081   1.382       .  S
C815        H825   1.083       .  S
C815        C820   1.404       .  A
C816        C821   1.479       .  S
C816        C817   1.413       .  A
C817        C818   1.407       .  A
C817        C822   1.520       .  S
C818        H823   1.082       .  S
C818        C819   1.409       .  A
C820        C824   1.520       .  S
C821        C830   1.402       .  A
C822        F838   1.382       .  S
C822        F839   1.382       .  S
C822        F840   1.384       .  S
C824        F835   1.385       .  S
C824        F836   1.382       .  S
C824        F837   1.384       .  S
C826        C827   1.406       .  A
C826        C831   1.521       .  S
C827        H832   1.082       .  S
C828        C829   1.416       .  A
C829        C830   1.406       .  A
C829        C833   1.518       .  S
C830        H834   1.082       .  S
C831        F844   1.384       .  S
C831        F845   1.382       .  S
C831        F846   1.382       .  S
C833        F841   1.382       .  S
C833        F842   1.383       .  S
C833        F843   1.385       .  S
C847        N865   1.351       .  A
N848        N870   1.320       .  A
N848       Co885   2.088       .  S
C849        C887   1.459   1_655  S
C849        H894   1.081       .  S
H850        C891   1.081       .  S
C851        N875   1.340       .  A
C851        H880   1.081       .  S
Co852      N1011   2.075       .  S
Co852       N860   2.083       .  S
Co852      N1033   2.084       .  S
Co852       N868   2.083       .  S
N853        N860   1.320   1_545  A
Co854       N857   2.086   1_455  S
Co854       N861   2.087   1_455  S
C855        N893   1.350       .  A
C855        C910   1.465       .  S
N856        N863   1.321   1_655  A
N856        N886   1.324       .  A
N856       Co889   2.088       .  S
N857        N875   1.321       .  A
N858        N868   1.324       .  A
H859        C884   1.081       .  S
N860        N881   1.323       .  A
N861        N879   1.321       .  A
C862        N866   1.350   1_545  A
C862        C922   1.468   1_545  S
C864        N892   1.339       .  A
C864        H898   1.081       .  S
C867        N888   1.350   1_455  A
N868        N874   1.320       .  A
N869        N871   1.321       .  A
N870        C884   1.337       .  A
N870       Co993   2.075   1_554  S
N871        N899   1.324       .  A
N871       Co889   2.089       .  S
H872        C895   1.081       .  S
H873        C890   1.081       .  S
N875      Co1030   2.085       .  S
N876        N892   1.320       .  A
N876       Co885   2.086       .  S
C877        C891   1.461       .  S
C878        C897   1.457       .  S
C878        H882   1.081       .  S
N879        C890   1.340       .  A
N879      Co1030   2.087       .  S
C883        C895   1.459       .  S
C883        C916   1.465       .  S
Co889      N1016   2.085   1_554  S
Co889      N1020   2.087   1_554  S
N892       Co993   2.084   1_554  S
C897        C902   1.463       .  S
C900        N901   1.357       .  A
C900        N905   1.360       .  A
C900        C969   1.474       .  S
N901        C902   1.355       .  A
C902        N903   1.356       .  A
N903        C904   1.358       .  A
C904        N905   1.359       .  A
C906        N907   1.358       .  A
C906        N911   1.362       .  A
C906        C960   1.488       .  S
N907        C908   1.356       .  A
C908        N909   1.356       .  A
N909        C910   1.357       .  A
C910        N911   1.358       .  A
C912        N913   1.358       .  A
C912        N917   1.363       .  A
C912        C937   1.492       .  S
N913        C914   1.356       .  A
C914        N915   1.356       .  A
N915        C916   1.355       .  A
C916        N917   1.357       .  A
C918        N919   1.360       .  A
C918        N923   1.361       .  A
C918        C928   1.476       .  S
N919        C920   1.357   1_565  A
C920        N921   1.356       .  A
N921        C922   1.357   1_545  A
C922        N923   1.359       .  A
C924        H934   1.084       .  S
C924        C925   1.401       .  A
C924        C929   1.407       .  A
C925        C930   1.480       .  S
C926        C927   1.406       .  A
C926        C931   1.521       .  S
C927        H932   1.084       .  S
C928        C929   1.417       .  A
C929        C933   1.518       .  S
C930        C939   1.399       .  A
C931        F947   1.382       .  S
C931        F948   1.382       .  S
C931        F949   1.384       .  S
C933        F944   1.382       .  S
C933        F945   1.384       .  S
C933        F946   1.383       .  S
C935        C936   1.404       .  A
C935        C940   1.521       .  S
C936        H941   1.082       .  S
C937        C938   1.427       .  A
C938        C939   1.408       .  A
C938        C942   1.522       .  S
C939        H943   1.084       .  S
C940        F953   1.385       .  S
C940        F955   1.382       .  S
C942        F950   1.385       .  S
C942        F951   1.384       .  S
C942        F952   1.383       .  S
C956        H966   1.083       .  S
C956        C961   1.404       .  A
C957        C962   1.479       .  S
C957        C958   1.413       .  A
C958        C959   1.407       .  A
C958        C963   1.520       .  S
C959        H964   1.082       .  S
C959        C960   1.409       .  A
C961        C965   1.520       .  S
C962        C971   1.402       .  A
C963        F979   1.382       .  S
C963        F980   1.382       .  S
C963        F981   1.384       .  S
C965        F976   1.385       .  S
C965        F977   1.382       .  S
C965        F978   1.384       .  S
C967        C968   1.406       .  A
C967        C972   1.521       .  S
C968        H973   1.082       .  S
C969        C970   1.416       .  A
C970        C971   1.406       .  A
C970        C974   1.518       .  S
C971        H975   1.082       .  S
C972        F985   1.384       .  S
C972        F986   1.382       .  S
C972        F987   1.382       .  S
C974        F982   1.382       .  S
C974        F983   1.383       .  S
C974        F984   1.385       .  S
C988       N1006   1.351       .  A
N989       N1011   1.320       .  A
N989      Co1026   2.088       .  S
C990       C1028   1.459   1_655  S
C990       H1035   1.081       .  S
H991       C1032   1.081       .  S
C992       N1016   1.340       .  A
C992       H1021   1.081       .  S
Co993      N1001   2.083       .  S
Co993      N1009   2.083       .  S
N994       N1001   1.320   1_545  A
Co995       N998   2.086   1_455  S
Co995      N1002   2.087   1_455  S
C996       N1034   1.350       .  A
C996       C1051   1.465       .  S
N997       N1004   1.321   1_655  A
N997       N1027   1.324       .  A
N997      Co1030   2.088       .  S
N998       N1016   1.321       .  A
N999       N1009   1.324       .  A
H1000      C1025   1.081       .  S
N1001      N1022   1.323       .  A
N1002      N1020   1.321       .  A
C1003      N1007   1.350   1_545  A
C1003      C1063   1.468   1_545  S
C1005      N1033   1.339       .  A
C1005      H1039   1.081       .  S
C1008      N1029   1.350   1_455  A
N1009      N1015   1.320       .  A
N1010      N1012   1.321       .  A
N1011      C1025   1.337       .  A
N1012      N1040   1.324       .  A
N1012     Co1030   2.089       .  S
H1013      C1036   1.081       .  S
H1014      C1031   1.081       .  S
N1017      N1033   1.320       .  A
N1017     Co1026   2.086       .  S
C1018      C1032   1.461       .  S
C1019      C1038   1.457       .  S
C1019      H1023   1.081       .  S
N1020      C1031   1.340       .  A
C1024      C1036   1.459       .  S
C1024      C1057   1.465       .  S
C1038      C1043   1.463       .  S
C1041      N1042   1.357       .  A
C1041      N1046   1.360       .  A
C1041      C1110   1.474       .  S
N1042      C1043   1.355       .  A
C1043      N1044   1.356       .  A
N1044      C1045   1.358       .  A
C1045      N1046   1.359       .  A
C1047      N1048   1.358       .  A
C1047      N1052   1.362       .  A
C1047      C1101   1.488       .  S
N1048      C1049   1.356       .  A
C1049      N1050   1.356       .  A
N1050      C1051   1.357       .  A
C1051      N1052   1.358       .  A
C1053      N1054   1.358       .  A
C1053      N1058   1.363       .  A
C1053      C1078   1.492       .  S
N1054      C1055   1.356       .  A
C1055      N1056   1.356       .  A
N1056      C1057   1.355       .  A
C1057      N1058   1.357       .  A
C1059      N1060   1.360       .  A
C1059      N1064   1.361       .  A
C1059      C1069   1.476       .  S
N1060      C1061   1.357   1_565  A
C1061      N1062   1.356       .  A
N1062      C1063   1.357   1_545  A
C1063      N1064   1.359       .  A
C1065      H1075   1.084       .  S
C1065      C1066   1.401       .  A
C1065      C1070   1.407       .  A
C1066      C1071   1.480       .  S
C1067      C1068   1.406       .  A
C1067      C1072   1.521       .  S
C1068      H1073   1.084       .  S
C1069      C1070   1.417       .  A
C1070      C1074   1.518       .  S
C1071      C1080   1.399       .  A
C1072      F1088   1.382       .  S
C1072      F1089   1.382       .  S
C1072      F1090   1.384       .  S
C1074      F1085   1.382       .  S
C1074      F1086   1.384       .  S
C1074      F1087   1.383       .  S
C1076      C1077   1.404       .  A
C1076      C1081   1.521       .  S
C1077      H1082   1.082       .  S
C1078      C1079   1.427       .  A
C1079      C1080   1.408       .  A
C1079      C1083   1.522       .  S
C1080      H1084   1.084       .  S
C1081      F1094   1.385       .  S
C1081      F1096   1.382       .  S
C1083      F1091   1.385       .  S
C1083      F1092   1.384       .  S
C1083      F1093   1.383       .  S
C1097      H1107   1.083       .  S
C1097      C1102   1.404       .  A
C1098      C1103   1.479       .  S
C1098      C1099   1.413       .  A
C1099      C1100   1.407       .  A
C1099      C1104   1.520       .  S
C1100      H1105   1.082       .  S
C1100      C1101   1.409       .  A
C1102      C1106   1.520       .  S
C1103      C1112   1.402       .  A
C1104      F1120   1.382       .  S
C1104      F1121   1.382       .  S
C1104      F1122   1.384       .  S
C1106      F1117   1.385       .  S
C1106      F1118   1.382       .  S
C1106      F1119   1.384       .  S
C1108      C1109   1.406       .  A
C1108      C1113   1.521       .  S
C1109      H1114   1.082       .  S
C1110      C1111   1.416       .  A
C1111      C1112   1.406       .  A
C1111      C1115   1.518       .  S
C1112      H1116   1.082       .  S
C1113      F1126   1.384       .  S
C1113      F1127   1.382       .  S
C1113      F1128   1.382       .  S
C1115      F1123   1.382       .  S
C1115      F1124   1.383       .  S
C1115      F1125   1.385       .  S
