geometry optimzed in LAMMPS
_audit_creation_date              2020-12-01 
_audit_creation_method            'lammps2cif' 
_symmetry_space_group_name_H-M    'P1' 
_symmetry_Int_Tables_number       1 
_symmetry_cell_setting            triclinic 
loop_ 
_symmetry_equiv_pos_as_xyz 
  x,y,z 
_cell_length_a                    27.02793183 
_cell_length_b                    27.05630028204814 
_cell_length_c                    89.91988879714675 
_cell_angle_alpha                 90.39916899912294 
_cell_angle_beta                  89.633342426469 
_cell_angle_gamma                 90.31867089578066 
loop_ 
_atom_site_label 
_atom_site_type_symbol 
_atom_site_fract_x 
_atom_site_fract_y 
_atom_site_fract_z 
_atom_site_charge 
C1          C  0.49342559  0.05263451  0.24162935     0.86800
C2          C  0.45075140  0.04776856  0.25288317    -0.53500
C3          C  0.45171995  0.00580451  0.26123648     0.09700
C4          C  0.49582176  0.97205927  0.25762636     0.20600
C5          C  0.54103380  0.04663443  0.25065092    -0.54200
C6          C  0.54199609  0.00529895  0.25923234     0.09800
C7          C  0.49147904  0.00408576  0.23247301    -0.53700
C8          C  0.49121159  0.96212838  0.24082097     0.10400
H9          H  0.42178634  0.07524705  0.25402920     0.14900
H10         H  0.49766270  0.93827243  0.26448783     0.00600
H11         H  0.57128085  0.07323372  0.25044780     0.15200
H12         H  0.49185351  0.00155117  0.22046291     0.15000
N13         N  0.93348488  0.51489314  0.00184536    -0.36300
N14         N  0.00750865  0.50504175  0.02461589    -0.56900
N15         N  0.08469020  0.50681378  0.00178539    -0.36300
N16         N  0.01089442  0.51337531  0.97907477    -0.56900
C17         C  0.90482208  0.50314045  0.01371603     0.27300
C18         C  0.90661595  0.50522935  0.98951755     0.27300
C19         C  0.11028630  0.49150029  0.01374700     0.27300
C20         C  0.11227609  0.49611045  0.98956674     0.27300
C21         C  0.96778168  0.51409810  0.03338789     0.35900
C22         C  0.04760971  0.50972189  0.03338342     0.35900
C23         C  0.97145315  0.52454539  0.97062722     0.35900
C24         C  0.05158889  0.52184203  0.97063529     0.35900
C25         C  0.85902029  0.48651526  0.00891450    -0.21600
C26         C  0.86023329  0.48754181  0.99362705    -0.21600
C27         C  0.15473877  0.47096932  0.00912070    -0.21600
C28         C  0.15593351  0.47373652  0.99383715    -0.21600
C29         C  0.98256720  0.52402487  0.04782793    -0.22700
C30         C  0.03326895  0.52147235  0.04781857    -0.22700
C31         C  0.98709497  0.54041963  0.95673676    -0.22700
C32         C  0.03795680  0.53889291  0.95676167    -0.22700
C33         C  0.91827483  0.50908834  0.02876771    -0.18000
C34         C  0.92178195  0.51476989  0.97471692    -0.18000
C35         C  0.10015745  0.50871809  0.97478000    -0.18000
C36         C  0.09660894  0.50000163  0.02874407    -0.18000
H37         H  0.82799378  0.47477170  0.01571955     0.14900
H38         H  0.83016151  0.47685896  0.98637164     0.14900
H39         H  0.18362244  0.45622031  0.01606499     0.14900
H40         H  0.18583534  0.46128996  0.98670334     0.14900
H41         H  0.95923135  0.53150503  0.05740048     0.13200
H42         H  0.05675889  0.52678110  0.05740632     0.13200
H43         H  0.96419847  0.55060075  0.94742634     0.13200
H44         H  0.06203135  0.54764495  0.94747256     0.13200
H45         H  0.96724033  0.53340488  0.00217813     0.26400
H46         H  0.05340733  0.52893976  0.00212991     0.26400
C47         C  0.43770856  0.99539372  0.74234631     0.86800
C48         C  0.44181848  0.95003535  0.75241467    -0.53500
C49         C  0.48230849  0.95024627  0.76139160     0.09700
C50         C  0.51687681  0.99528396  0.75912645     0.20600
C51         C  0.44233616  0.04044762  0.75271496    -0.54200
C52         C  0.48337319  0.04054194  0.76144633     0.09800
C53         C  0.48731219  0.99428390  0.73365731    -0.53700
C54         C  0.52884747  0.99454851  0.74230316     0.10400
H55         H  0.41520367  0.91979830  0.75232563     0.14900
H56         H  0.54991450  0.99577479  0.76639969     0.00600
H57         H  0.41520968  0.06991877  0.75312476     0.15200
H58         H  0.49067076  0.99143368  0.72169153     0.15000
C59         C  0.06398229  0.49777636  0.75894908     0.86800
C60         C  0.05661037  0.45186890  0.74908745    -0.53500
C61         C  0.01368439  0.45142467  0.74121078     0.09700
C62         C  0.98163984  0.49798551  0.74358134     0.20600
C63         C  0.05942040  0.54123032  0.74788532    -0.54200
C64         C  0.01636620  0.54167096  0.73988953     0.09800
C65         C  0.01657696  0.50196344  0.76841355    -0.53700
C66         C  0.97364389  0.50232826  0.76048689     0.10400
H67         H  0.08312042  0.42187343  0.74846099     0.14900
H68         H  0.94641905  0.49783813  0.73729991     0.00600
H69         H  0.08608296  0.57072669  0.74651356     0.15200
H70         H  0.01704681  0.50427021  0.78047785     0.15000
N71         N  0.50970471  0.92600401  0.00075450    -0.36300
N72         N  0.51416692  0.00234195  0.02391852    -0.56900
N73         N  0.51549271  0.07797323  0.00133434    -0.36300
N74         N  0.51601327  0.00152981  0.97821049    -0.56900
C75         C  0.51801078  0.89817255  0.01291059     0.27300
C76         C  0.52068314  0.89789718  0.98866082     0.27300
C77         C  0.52646708  0.10568231  0.01348920     0.27300
C78         C  0.52665050  0.10533145  0.98922420     0.27300
C79         C  0.50352988  0.96261412  0.03239592     0.35900
C80         C  0.50777329  0.04252609  0.03273207     0.35900
C81         C  0.50712153  0.96178686  0.96941501     0.35900
C82         C  0.50879850  0.04178583  0.96972058     0.35900
C83         C  0.53372496  0.85157164  0.00851904    -0.21600
C84         C  0.53565541  0.85147052  0.99321783    -0.21600
C85         C  0.54426450  0.15145557  0.00902974    -0.21600
C86         C  0.54432000  0.15126151  0.99371902    -0.21600
C87         C  0.49078595  0.97757356  0.04668518    -0.22700
C88         C  0.49336796  0.02820767  0.04688924    -0.22700
C89         C  0.49429003  0.97685716  0.95526279    -0.22700
C90         C  0.49539743  0.02757249  0.95545055    -0.22700
C91         C  0.50940394  0.91291859  0.02782323    -0.18000
C92         C  0.51491086  0.91221682  0.97364017    -0.18000
C93         C  0.51871095  0.09094763  0.97425624    -0.18000
C94         C  0.51821400  0.09172611  0.02846905    -0.18000
H95         H  0.54277143  0.82077672  0.01560598     0.14900
H96         H  0.54646602  0.82053741  0.98625128     0.14900
H97         H  0.55566356  0.18200790  0.01607102     0.14900
H98         H  0.55573097  0.18165617  0.98669930     0.14900
H99         H  0.48138571  0.95438531  0.05605884     0.13200
H100        H  0.48616173  0.05171307  0.05643738     0.13200
H101        H  0.48595384  0.95373128  0.94572423     0.13200
H102        H  0.48813571  0.05125752  0.94607151     0.13200
H103        H  0.49238744  0.96012958  0.00074044     0.26400
H104        H  0.49637095  0.04463366  0.00126198     0.26400
C105        C  0.66690012  0.50828861  0.89345490     0.42700
N106        N  0.62249627  0.48248288  0.87532407     0.01600
C107        C  0.46882031  0.62469940  0.83180235    -0.06200
H108        H  0.43535181  0.63458228  0.88936423     0.07100
C109        C  0.38766363  0.45612973  0.88799319    -0.06600
Co110      Co  0.57925021  0.56596096  0.85817973     0.74200
N111        N  0.49027074  0.60127417  0.87500089    -0.25800
Co112      Co  0.45073863  0.55945516  0.85950561     0.74100
C113        C  0.36557867  0.50095106  0.89436551     0.42800
N114        N  0.49914563  0.39843157  0.87718468     0.01200
N115        N  0.41461660  0.52063510  0.87637899     0.01400
N116        N  0.55225102  0.62800936  0.83095838    -0.46600
H117        H  0.65459333  0.58971618  0.88738275     0.07100
N118        N  0.53905414  0.60416158  0.87453856     0.01600
N119        N  0.41310690  0.51579604  0.84395785     0.01400
C120        C  0.36600773  0.49088187  0.82623480     0.43000
N121        N  0.54793463  0.40136356  0.87688420    -0.25200
C122        C  0.64462932  0.54118173  0.83037903    -0.06100
N123        N  0.64997180  0.46716470  0.88653252    -0.46300
N124        N  0.38291669  0.53148763  0.83345976    -0.46600
C125        C  0.66505049  0.49637213  0.82363098     0.42800
N126        N  0.53628246  0.59949979  0.84193434     0.01600
N127        N  0.54600919  0.39491019  0.84457201    -0.25300
N128        N  0.62073580  0.53112098  0.87446450    -0.25700
N129        N  0.49720282  0.39297516  0.84491795     0.01300
H130        H  0.60069683  0.35356751  0.83217466     0.07200
H131        H  0.37993407  0.40918243  0.83179213     0.07200
N132        N  0.48760188  0.59700984  0.84263020    -0.25800
N133        N  0.41713222  0.47202288  0.87692081    -0.25400
N134        N  0.62089164  0.47683512  0.84271054     0.01600
C135        C  0.51825227  0.64895701  0.89333057     0.43000
C136        C  0.56598194  0.37388386  0.88791946    -0.06700
N137        N  0.41601233  0.46714679  0.84437818    -0.25400
H138        H  0.38010954  0.41782052  0.89055747     0.07200
N139        N  0.55731421  0.63277297  0.88523652    -0.46600
H140        H  0.60470358  0.36665136  0.88988058     0.07200
C141        C  0.51752340  0.33984084  0.82813592     0.42900
C142        C  0.64850167  0.55072459  0.88533949    -0.06200
Co143      Co  0.58523437  0.43818398  0.85986861     0.73800
N144        N  0.48236049  0.36921691  0.88784746    -0.46300
C145        C  0.51172647  0.64451561  0.82379296     0.43100
N146        N  0.64962656  0.45802587  0.83209215    -0.46300
Co147      Co  0.45674609  0.43195542  0.86086473     0.73900
C148        C  0.38729403  0.44806936  0.83362581    -0.06700
C149        C  0.47374638  0.62893950  0.88638290    -0.06200
N150        N  0.61772056  0.52545068  0.84201190    -0.25800
N151        N  0.38415714  0.53933663  0.88653675    -0.46500
H152        H  0.43003179  0.63326748  0.83059860     0.07100
C153        C  0.56232648  0.36229666  0.83436884    -0.06600
Cl154      Cl  0.51800287  0.49885041  0.85959466    -0.49600
C155        C  0.52240964  0.35239994  0.89507487     0.42900
H156        H  0.65132120  0.57939891  0.82750439     0.07100
N157        N  0.47882758  0.36037389  0.83538148    -0.46300
C158        C  0.65314881  0.51772243  0.17639827     0.42700
N159        N  0.60817757  0.49299258  0.15821044     0.01600
C160        C  0.45125650  0.63421265  0.11558198    -0.06200
H161        H  0.41573774  0.64036581  0.17276610     0.07100
C162        C  0.37556845  0.45746113  0.17034516    -0.06600
Co163      Co  0.56256633  0.57694861  0.14196595     0.74200
N164        N  0.47219565  0.60736740  0.15888005    -0.25800
Co165      Co  0.43497440  0.56556412  0.14287279     0.74100
C166        C  0.35274127  0.50129223  0.17720460     0.42800
N167        N  0.48868878  0.40375178  0.15900507     0.01200
N168        N  0.40074195  0.52352971  0.15925002     0.01400
N169        N  0.53487650  0.64051182  0.11528991    -0.46600
H170        H  0.63841432  0.59949549  0.17114344     0.07100
N171        N  0.52078515  0.61217211  0.15845409     0.01600
N172        N  0.39962134  0.52224555  0.12692106     0.01400
C173        C  0.35236824  0.49789867  0.10934281     0.43000
N174        N  0.53716996  0.40891050  0.15875014    -0.25200
C175        C  0.62865736  0.55745783  0.11397526    -0.06100
N176        N  0.63726134  0.47719533  0.16895632    -0.46300
N177        N  0.36926607  0.53835776  0.11656135    -0.46600
C178        C  0.64913922  0.51374921  0.10666359     0.42800
N179        N  0.51910801  0.61082071  0.12598637     0.01600
N180        N  0.53608696  0.40705874  0.12632424    -0.25300
N181        N  0.60462023  0.54157711  0.15798014    -0.25700
N182        N  0.48749317  0.40209540  0.12648251     0.01300
H183        H  0.59357401  0.37500833  0.11265623     0.07200
H184        H  0.36974459  0.41605390  0.11362188     0.07200
N185        N  0.47045733  0.60655162  0.12640522    -0.25800
N186        N  0.40448684  0.47496170  0.15936481    -0.25400
N187        N  0.60655642  0.49119687  0.12561256     0.01600
C188        C  0.49803887  0.65842686  0.17671579     0.43000
C189        C  0.55646959  0.38198246  0.16968466    -0.06700
N190        N  0.40372345  0.47362115  0.12689338    -0.25400
H191        H  0.36945912  0.41875081  0.17267815     0.07200
N192        N  0.53771129  0.64251783  0.16887591    -0.46600
H193        H  0.59548338  0.38029160  0.17196676     0.07200
C194        C  0.51166470  0.35765153  0.10795048     0.42900
C195        C  0.63245677  0.56058024  0.16892782    -0.06200
Co196      Co  0.57286387  0.44940013  0.14224389     0.73800
N197        N  0.47335046  0.37358354  0.16962363    -0.46300
C198        C  0.49410015  0.65665871  0.10830399     0.43100
N199        N  0.63432639  0.47409357  0.11455529    -0.46300
Co200      Co  0.44527289  0.43765192  0.14294881     0.73900
C201        C  0.37549201  0.45489539  0.11599772    -0.06700
C202        C  0.45444522  0.63498455  0.17013584    -0.06200
N203        N  0.60261665  0.53978274  0.12552389    -0.25800
N204        N  0.37012622  0.54053836  0.16957902    -0.46500
H205        H  0.41228376  0.63960683  0.11351935     0.07100
C206        C  0.55468529  0.37991525  0.11512351    -0.06600
Cl207      Cl  0.50389409  0.50736806  0.14250777    -0.49600
C208        C  0.51399230  0.35776876  0.17689162     0.42900
H209        H  0.63370102  0.59606608  0.11128983     0.07100
N210        N  0.47131979  0.37213723  0.11579757    -0.46300
C211        C  0.13231459  0.00109675  0.67649630     0.42700
N212        N  0.08554016  0.97852203  0.65826717     0.01600
C213        C  0.93356081  0.12452000  0.61533070    -0.06200
H214        H  0.89238620  0.13056773  0.67194075     0.07100
C215        C  0.85246473  0.94290564  0.66822984    -0.06600
Co216      Co  0.04181286  0.06530293  0.64260482     0.74200
N217        N  0.95000205  0.09548965  0.65899996    -0.25800
Co218      Co  0.91380469  0.05513270  0.64240422     0.74100
C219        C  0.82983231  0.98536659  0.67571676     0.42800
N220        N  0.96462750  0.89033764  0.65695186     0.01200
N221        N  0.87780625  0.01103271  0.65820630     0.01400
N222        N  0.01707033  0.13111066  0.61597618    -0.46600
H223        H  0.11748075  0.08352921  0.67140421     0.07100
N224        N  0.99866981  0.09971913  0.65905725     0.01600
N225        N  0.87923633  0.01409217  0.62573135     0.01400
C226        C  0.83442862  0.99284414  0.60714649     0.43000
N227        N  0.01327169  0.89456920  0.65714377    -0.25200
C228        C  0.11110208  0.04836747  0.61496978    -0.06100
N229        N  0.11552176  0.96158901  0.66864497    -0.46300
N230        N  0.85032853  0.03186952  0.61524814    -0.46600
C231        C  0.13154962  0.00528938  0.60722043     0.42800
N232        N  0.00005747  0.10162397  0.62658410     0.01600
N233        N  0.01516024  0.89746290  0.62467551    -0.25300
N234        N  0.08189547  0.02710354  0.65860388    -0.25700
N235        N  0.96646451  0.89370317  0.62431398     0.01300
H236        H  0.07313610  0.86665756  0.61088191     0.07200
H237        H  0.85102510  0.91025935  0.61058441     0.07200
N238        N  0.95134968  0.09737839  0.62650353    -0.25800
N239        N  0.88132911  0.96238596  0.65755596    -0.25400
N240        N  0.08711055  0.98098701  0.62569208     0.01600
C241        C  0.97436607  0.14712500  0.67698958     0.43000
C242        C  0.03094992  0.86513400  0.66776769    -0.06700
N243        N  0.88321374  0.96554477  0.62506506    -0.25400
H244        H  0.84766262  0.90388439  0.67032278     0.07200
N245        N  0.01463856  0.13069900  0.66947238    -0.46600
H246        H  0.06969215  0.85929371  0.67007628     0.07200
C247        C  0.99139196  0.85182200  0.60530075     0.42900
C248        C  0.11023892  0.04476523  0.66961632    -0.06200
Co249      Co  0.05107910  0.93721729  0.64147602     0.73800
N250        N  0.94762433  0.85886912  0.66702472    -0.46300
C251        C  0.97726763  0.14618502  0.60825865     0.43100
N252        N  0.11576783  0.96497436  0.61468413    -0.46300
Co253      Co  0.92316872  0.92713835  0.64095969     0.73900
C254        C  0.85638091  0.94869451  0.61357925    -0.06700
C255        C  0.93131193  0.12432851  0.66984879    -0.06200
N256        N  0.08360909  0.02962457  0.62610321    -0.25800
N257        N  0.84733856  0.02630018  0.66888955    -0.46500
H258        H  0.89490146  0.12931276  0.61269528     0.07100
C259        C  0.03417955  0.87161254  0.61323242    -0.06600
Cl260      Cl  0.98245770  0.99620745  0.64188633    -0.49600
C261        C  0.98728330  0.84170701  0.67443691     0.42900
H262        H  0.11629573  0.08722050  0.61264329     0.07100
N263        N  0.95067982  0.86628417  0.61297759    -0.46300
C264        C  0.99994085  0.13295147  0.32371271     0.42700
N265        N  0.97667655  0.08849549  0.34225729     0.01600
C266        C  0.12155103  0.94043774  0.38609830    -0.06200
H267        H  0.13256232  0.89921931  0.32957433     0.07100
C268        C  0.94625610  0.85544386  0.33185356    -0.06600
Co269      Co  0.06277996  0.04691893  0.35841194     0.74200
N270        N  0.09501556  0.95597114  0.34216141    -0.25800
Co271      Co  0.05504983  0.91879552  0.35849324     0.74100
C272        C  0.98984034  0.83332702  0.32475478     0.42800
N273        N  0.89046779  0.96694739  0.34295770     0.01200
N274        N  0.01300660  0.88188320  0.34245322     0.01400
N275        N  0.12620477  0.02403771  0.38537151    -0.46600
H276        H  0.08229371  0.12059531  0.32953434     0.07100
N277        N  0.09849267  0.00461971  0.34217554     0.01600
N278        N  0.01377104  0.88310201  0.37480190     0.01400
C279        C  0.99140318  0.83717001  0.39289291     0.43000
N280        N  0.89389228  0.01555884  0.34282777    -0.25200
C281        C  0.04340643  0.11773453  0.38542773    -0.06100
N282        N  0.95997603  0.11655092  0.33140951    -0.46300
N283        N  0.03110260  0.85339481  0.38515822    -0.46600
C284        C  0.99958529  0.13912877  0.39250243     0.42800
N285        N  0.09842172  0.00606296  0.37452440     0.01600
N286        N  0.89443210  0.01709615  0.37520371    -0.25300
N287        N  0.02532227  0.08588498  0.34229518    -0.25700
N288        N  0.89143354  0.96837548  0.37542157     0.01300
H289        H  0.85955725  0.07431228  0.38833452     0.07200
H290        H  0.90898150  0.85312591  0.38905520     0.07200
N291        N  0.09527791  0.95733664  0.37462649    -0.25800
N292        N  0.96427701  0.88497967  0.34261077    -0.25400
N293        N  0.97681820  0.09072930  0.37481473     0.01600
C294        C  0.14690939  0.98124347  0.32452613     0.43000
C295        C  0.86398627  0.03291508  0.33227109    -0.06700
N296        N  0.96509304  0.88667731  0.37516189    -0.25400
H297        H  0.90750130  0.84722433  0.33018531     0.07200
N298        N  0.12973101  0.02120924  0.33194294    -0.46600
H299        H  0.85763182  0.07161746  0.33012365     0.07200
C300        C  0.84375953  0.99223240  0.39320838     0.42900
C301        C  0.04346491  0.11314920  0.33117189    -0.06200
Co302      Co  0.93481033  0.05378278  0.35876897     0.73800
N303        N  0.85884258  0.94968558  0.33298517    -0.46300
C304        C  0.14118506  0.98483071  0.39327391     0.43100
N305        N  0.95972593  0.12059843  0.38537501    -0.46300
Co306      Co  0.92705772  0.92598373  0.35904525     0.73900
C307        C  0.94759436  0.85921053  0.38638407    -0.06700
C308        C  0.12437267  0.93787692  0.33139964    -0.06200
N309        N  0.02557874  0.08827194  0.37462654    -0.25800
N310        N  0.02972181  0.85084423  0.33214050    -0.46500
H311        H  0.12686074  0.90203076  0.38889751     0.07100
C312        C  0.86556925  0.03550582  0.38605869    -0.06600
Cl313      Cl  0.99488388  0.98634465  0.35868617    -0.49600
C314        C  0.84062472  0.98901485  0.32566252     0.42900
H315        H  0.08210906  0.12364193  0.38787414     0.07100
N316        N  0.86140413  0.95192341  0.38603341    -0.46300
N317        N  0.98969653  0.56597431  0.49990961    -0.36300
N318        N  0.98728331  0.49192635  0.52285534    -0.56900
N319        N  0.98254261  0.41508319  0.50004386    -0.36300
N320        N  0.98103695  0.48962681  0.47708455    -0.56900
C321        C  0.98169810  0.59445657  0.51211124     0.27300
C322        C  0.97767317  0.59317680  0.48791649     0.27300
C323        C  0.97081558  0.38877397  0.51232912     0.27300
C324        C  0.96936041  0.38748856  0.48808120     0.27300
C325        C  0.00005084  0.53166821  0.53122485     0.35900
C326        C  0.99510922  0.45163248  0.53129753     0.35900
C327        C  0.99112494  0.52904312  0.46841565     0.35900
C328        C  0.98797135  0.44906795  0.46847554     0.35900
C329        C  0.96435298  0.64030812  0.50782052    -0.21600
C330        C  0.96181966  0.63950428  0.49253630    -0.21600
C331        C  0.94988527  0.34391647  0.50810730    -0.21600
C332        C  0.94916017  0.34303928  0.49278825    -0.21600
C333        C  0.01607019  0.51658391  0.54506857    -0.22700
C334        C  0.01291581  0.46582323  0.54511983    -0.22700
C335        C  0.00412626  0.51347310  0.45420069    -0.22700
C336        C  0.00202970  0.46274325  0.45423391    -0.22700
C337        C  0.99348562  0.58134444  0.52687677    -0.18000
C338        C  0.98546470  0.57885269  0.47292324    -0.18000
C339        C  0.97832999  0.40010433  0.47306668    -0.18000
C340        C  0.98192698  0.40275908  0.52715591    -0.18000
H341        H  0.95541416  0.67145905  0.51494104     0.14900
H342        H  0.95069842  0.66995934  0.48559241     0.14900
H343        H  0.93717079  0.31452239  0.51531057     0.14900
H344        H  0.93571439  0.31295208  0.48589185     0.14900
H345        H  0.02798555  0.53975425  0.55424360     0.13200
H346        H  0.02184289  0.44212873  0.55436176     0.13200
H347        H  0.01367220  0.53625592  0.44475068     0.13200
H348        H  0.00947180  0.43872245  0.44481735     0.13200
H349        H  0.00847839  0.53255678  0.49964870     0.26400
H350        H  0.00382590  0.44716357  0.49979414     0.26400
N351        N  0.41176989  0.99638058  0.50022745    -0.36300
N352        N  0.48656978  0.99650435  0.52292909    -0.56900
N353        N  0.56309273  0.99494089  0.49974068    -0.36300
N354        N  0.48814000  0.99071325  0.47712515    -0.56900
C355        C  0.38378417  0.98730447  0.51245152     0.27300
C356        C  0.38444823  0.98385509  0.48824442     0.27300
C357        C  0.58995418  0.98503309  0.51198021     0.27300
C358        C  0.59096064  0.98247362  0.48773589     0.27300
C359        C  0.44672775  0.00813965  0.53140861     0.35900
C360        C  0.52689302  0.00722333  0.53116789     0.35900
C361        C  0.44809068  0.99821913  0.46854956     0.35900
C362        C  0.52821172  0.99737674  0.46827374     0.35900
C363        C  0.33806144  0.96880429  0.50817687    -0.21600
C364        C  0.33843390  0.96673303  0.49288184    -0.21600
C365        C  0.63553182  0.96607729  0.50770549    -0.21600
C366        C  0.63622097  0.96464916  0.49239640    -0.21600
C367        C  0.46177055  0.02624957  0.54510873    -0.22700
C368        C  0.51262467  0.02566005  0.54496047    -0.22700
C369        C  0.46273867  0.00927906  0.45413754    -0.22700
C370        C  0.51357103  0.00873192  0.45396493    -0.22700
C371        C  0.39708665  0.99938355  0.52723640    -0.18000
C372        C  0.39860272  0.99091477  0.47324862    -0.18000
C373        C  0.57759004  0.98944992  0.47270973    -0.18000
C374        C  0.57617448  0.99706333  0.52678922    -0.18000
H375        H  0.30727435  0.95879994  0.51531953     0.14900
H376        H  0.30800757  0.95467613  0.48595306     0.14900
H377        H  0.66561290  0.95537065  0.51486606     0.14900
H378        H  0.66675299  0.95236406  0.48548268     0.14900
H379        H  0.43854974  0.03826339  0.55427938     0.13200
H380        H  0.53637292  0.03710107  0.55401276     0.13200
H381        H  0.43924749  0.01609344  0.44467470     0.13200
H382        H  0.53701952  0.01510629  0.44435842     0.13200
H383        H  0.44508683  0.01592684  0.49996760     0.26400
H384        H  0.53023485  0.01482636  0.49959993     0.26400
C385        C  0.99919527  0.43658714  0.25900964     0.86800
C386        C  0.95476073  0.44062460  0.24858212    -0.53500
C387        C  0.95460724  0.48216255  0.24009389     0.09700
C388        C  0.99846954  0.51756866  0.24315362     0.20600
C389        C  0.04506302  0.44365277  0.24917897    -0.54200
C390        C  0.04513620  0.48560572  0.24081170     0.09800
C391        C  0.99621769  0.48485243  0.26826670    -0.53700
C392        C  0.99643471  0.52709958  0.26006298     0.10400
H393        H  0.92538381  0.41310641  0.24806062     0.14900
H394        H  0.99735785  0.55189841  0.23654727     0.00600
H395        H  0.07544722  0.41751160  0.24897818     0.15200
H396        H  0.99260144  0.48690374  0.28023930     0.15000
C397        C  0.96513516  0.74689544  0.29189133    -0.22200
C398        C  0.99455253  0.70636026  0.29550280     0.09800
C399        C  0.02335614  0.70795791  0.30854010     0.10200
C400        C  0.02160640  0.75009059  0.31777955    -0.17100
C401        C  0.99099477  0.79027082  0.31441581    -0.27500
C402        C  0.96285491  0.78875814  0.30119471     0.18500
C403        C  0.99308981  0.66194490  0.28572635     0.12500
C404        C  0.05525334  0.66489706  0.31279080    -0.11900
H405        H  0.04343590  0.75121263  0.32784795     0.12800
C406        C  0.93098817  0.83137869  0.29667025    -0.22700
H407        H  0.94330294  0.74538375  0.28182415     0.08400
C408        C  0.95538130  0.62608898  0.28724958     0.04700
C409        C  0.95583598  0.58407136  0.27802591    -0.23500
C410        C  0.99358524  0.57647795  0.26744416    -0.12200
C411        C  0.03095761  0.61294147  0.26575287     0.13500
C412        C  0.02997885  0.65545467  0.27486559    -0.22700
C413        C  0.91551471  0.63148555  0.29892411    -0.05700
H414        H  0.92736587  0.55605519  0.27939920     0.15000
C415        C  0.07346635  0.60613032  0.25504745    -0.15900
H416        H  0.05877782  0.68326462  0.27378688     0.09300
H417        H  0.90020536  0.83534689  0.30472342     0.07200
H418        H  0.91449404  0.82541749  0.28551289     0.08400
H419        H  0.95330469  0.86593498  0.29632582     0.07400
H420        H  0.08324374  0.65792239  0.30394644     0.02300
H421        H  0.03191679  0.63133543  0.31420657     0.02800
H422        H  0.07507689  0.67195869  0.32338461     0.06300
H423        H  0.88920824  0.59980332  0.29874455     0.05300
H424        H  0.89424744  0.66578338  0.29697577    -0.00500
H425        H  0.93251359  0.63338732  0.31012440     0.01000
H426        H  0.05979796  0.60462036  0.24346386     0.04600
H427        H  0.09331677  0.57154680  0.25767603     0.06600
H428        H  0.10047829  0.63712731  0.25575897     0.07400
C429        C  0.03330012  0.22236169  0.29248769    -0.22200
C430        C  0.99197486  0.25313367  0.29282354     0.09800
C431        C  0.95118084  0.24123691  0.30194486     0.10200
C432        C  0.95481263  0.20137201  0.31173553    -0.17100
C433        C  0.99784108  0.17234210  0.31231445    -0.27500
C434        C  0.03663272  0.18158744  0.30194614     0.18500
C435        C  0.99413395  0.29957057  0.28436264     0.12500
C436        C  0.90377908  0.27020749  0.30119474    -0.11900
H437        H  0.92404030  0.19347765  0.31914317     0.12800
C438        C  0.08137632  0.14897095  0.30039420    -0.22700
H439        H  0.06381775  0.23126241  0.28506927     0.08400
C440        C  0.00626140  0.34446984  0.29145064     0.04700
C441        C  0.00886118  0.38776592  0.28306226    -0.19900
C442        C  0.00036046  0.38763486  0.26757567    -0.12200
C443        C  0.99406072  0.34079505  0.26035743     0.13500
C444        C  0.98910472  0.29794439  0.26893486    -0.22700
C445        C  0.01841578  0.34643400  0.30781250    -0.05700
H446        H  0.01970219  0.42105157  0.28882079     0.15000
C447        C  0.99379603  0.33325558  0.24371341    -0.15900
H448        H  0.98279047  0.26257774  0.26349250     0.09300
H449        H  0.10792852  0.15723587  0.30941155     0.07200
H450        H  0.10128541  0.15576573  0.28974796     0.08400
H451        H  0.07023805  0.10940970  0.30043065     0.07400
H452        H  0.88876463  0.26790129  0.28974371     0.02300
H453        H  0.91045046  0.30957570  0.30406972     0.02800
H454        H  0.87528236  0.25553620  0.30897402     0.06300
H455        H  0.02836052  0.38440324  0.31154106     0.05300
H456        H  0.05034725  0.32201940  0.31006821    -0.00500
H457        H  0.98628136  0.33399579  0.31455592     0.01000
H458        H  0.00348865  0.36660379  0.23737804     0.04600
H459        H  0.02178464  0.30504377  0.24059890     0.06600
H460        H  0.95678844  0.31990759  0.24014122     0.07400
C461        C  0.01711543  0.25771993  0.41496829    -0.22200
C462        C  0.98767143  0.24779406  0.42749904     0.09800
C463        C  0.96211377  0.20229860  0.42845502     0.10200
C464        C  0.96674403  0.16757335  0.41683980    -0.17100
C465        C  0.99701555  0.17699222  0.40442924    -0.27500
C466        C  0.02217245  0.22286243  0.40340132     0.18500
C467        C  0.98463522  0.28550958  0.43953754     0.12500
C468        C  0.93051991  0.19024359  0.44181215    -0.11900
H469        H  0.94709970  0.13260564  0.41751954     0.12800
C470        C  0.05270084  0.23612860  0.38991578    -0.22700
H471        H  0.03622003  0.29297365  0.41426790     0.08400
C472        C  0.02255392  0.29073128  0.45015747     0.04700
C473        C  0.01901851  0.32793722  0.46107028    -0.19900
C474        C  0.97832872  0.35990193  0.46164559    -0.12200
C475        C  0.93969841  0.35384969  0.45121870     0.13500
C476        C  0.94354735  0.31689652  0.44022387    -0.22700
C477        C  0.06656085  0.25682585  0.45000157    -0.05700
H478        H  0.04837943  0.33252879  0.46912819     0.15000
C479        C  0.89388700  0.38533096  0.45145863    -0.15900
H480        H  0.91429141  0.31251117  0.43211734     0.09300
H481        H  0.08503894  0.21129622  0.38894815     0.07200
H482        H  0.06699255  0.27464678  0.39059423     0.08400
H483        H  0.02975547  0.23283668  0.37975255     0.07400
H484        H  0.90020838  0.21755832  0.44291701     0.02300
H485        H  0.95348060  0.19140845  0.45200589     0.02800
H486        H  0.91361675  0.15284375  0.44088368     0.06300
H487        H  0.09248267  0.26550964  0.45920361     0.05300
H488        H  0.08708721  0.26056877  0.43933568    -0.00500
H489        H  0.05389498  0.21795785  0.45125620     0.01000
H490        H  0.89120326  0.40582334  0.44084229     0.04600
H491        H  0.89344311  0.41252444  0.46072900     0.06600
H492        H  0.86072604  0.36126407  0.45270407     0.07400
C493        C  0.01463927  0.71865020  0.41402096    -0.22200
C494        C  0.98860848  0.72826212  0.42724166     0.09800
C495        C  0.96438965  0.77386980  0.42924255     0.10200
C496        C  0.96614005  0.80882324  0.41781492    -0.17100
C497        C  0.99231137  0.79942926  0.40459839    -0.27500
C498        C  0.01686737  0.75380818  0.40262737     0.18500
C499        C  0.98715952  0.68996082  0.43886822     0.12500
C500        C  0.93677547  0.78554081  0.44342697    -0.11900
H501        H  0.94729945  0.84383436  0.41923172     0.12800
C502        C  0.04366065  0.74125041  0.38835612    -0.22700
H503        H  0.03291720  0.68334779  0.41260210     0.08400
C504        C  0.94956880  0.65364544  0.43921804     0.04700
C505        C  0.94946476  0.61843808  0.45059508    -0.19900
C506        C  0.98698462  0.61790065  0.46133351    -0.12200
C507        C  0.02531935  0.65378541  0.46072221     0.13500
C508        C  0.02442346  0.68981266  0.44960377    -0.22700
C509        C  0.91003636  0.65180521  0.42749087    -0.05700
H510        H  0.92036897  0.59073699  0.45103722     0.15000
C511        C  0.06831401  0.65458042  0.47132767    -0.15900
H512        H  0.05347516  0.71758346  0.44914976     0.09300
H513        H  0.01786562  0.74403820  0.37883724     0.07200
H514        H  0.05855019  0.70307059  0.38848353     0.08400
H515        H  0.07526620  0.76699703  0.38668630     0.07400
H516        H  0.96251032  0.78412006  0.45298640     0.02300
H517        H  0.90656409  0.75818496  0.44513610     0.02800
H518        H  0.92010240  0.82295703  0.44317702     0.06300
H519        H  0.88354219  0.62092435  0.42938504     0.05300
H520        H  0.92737212  0.64643609  0.41637208    -0.00500
H521        H  0.88895896  0.68688613  0.42755910     0.01000
H522        H  0.10349360  0.65241410  0.46491653     0.04600
H523        H  0.06790165  0.62336353  0.47922226     0.06600
H524        H  0.06796466  0.68962758  0.47782511     0.07400
C525        C  0.20189283  0.96858000  0.43079051    -0.22200
C526        C  0.24744558  0.99208838  0.42828973     0.09800
C527        C  0.25763256  0.01391039  0.41439935     0.10200
C528        C  0.22161658  0.01188050  0.40326080    -0.17100
C529        C  0.17629378  0.98762590  0.40565427    -0.27500
C530        C  0.16590216  0.96629005  0.41965189     0.18500
C531        C  0.28476186  0.99182468  0.44018604     0.12500
C532        C  0.30688305  0.03818957  0.41124207    -0.11900
H533        H  0.22932055  0.02817617  0.39250345     0.12800
C534        C  0.11694268  0.94230208  0.42341333    -0.22700
H535        H  0.19434372  0.95208140  0.44153125     0.08400
C536        C  0.28989208  0.03176417  0.45022561     0.04700
C537        C  0.32755964  0.03051482  0.46086372    -0.19900
C538        C  0.35923835  0.98975406  0.46183200    -0.12200
C539        C  0.35262088  0.94886697  0.45215513     0.13500
C540        C  0.31569538  0.95070561  0.44132749    -0.22700
C541        C  0.25523494  0.07515557  0.44983502    -0.05700
H542        H  0.33233294  0.06131918  0.46850511     0.15000
C543        C  0.38324271  0.90261926  0.45307669    -0.15900
H544        H  0.31089292  0.91979543  0.43371970     0.09300
H545        H  0.10060173  0.96091065  0.43332026     0.07200
H546        H  0.12276767  0.90270991  0.42600530     0.08400
H547        H  0.08953229  0.94469701  0.41435474     0.07400
H548        H  0.33700395  0.01086033  0.41256107     0.02300
H549        H  0.31308073  0.06943155  0.41907357     0.02800
H550        H  0.30890199  0.05283961  0.39974523     0.06300
H551        H  0.26428227  0.10298746  0.45855483     0.05300
H552        H  0.21668195  0.06217885  0.45173786    -0.00500
H553        H  0.25751938  0.09357600  0.43887097     0.01000
H554        H  0.35851688  0.87039144  0.45506933     0.04600
H555        H  0.41067531  0.90384667  0.46217494     0.06600
H556        H  0.40344234  0.89686531  0.44242105     0.07400
C557        C  0.65871503  0.94877388  0.43991560    -0.22200
C558        C  0.69106907  0.98923154  0.43866104     0.09800
C559        C  0.68675823  0.02917104  0.44876392     0.10200
C560        C  0.64976594  0.02797170  0.45981958    -0.17100
C561        C  0.61712859  0.98762417  0.46104597    -0.27500
C562        C  0.62209872  0.94719572  0.45106715     0.18500
C563        C  0.72994855  0.98858702  0.42689746     0.12500
C564        C  0.72147966  0.07280249  0.44792205    -0.11900
H565        H  0.64605044  0.05874617  0.46752198     0.12800
C566        C  0.59003014  0.90157796  0.45201204    -0.22700
H567        H  0.66244810  0.91793539  0.43223153     0.08400
C568        C  0.77519631  0.96381903  0.42896319     0.04700
C569        C  0.81148111  0.96521459  0.41769936    -0.19900
C570        C  0.80365814  0.99116434  0.40448122    -0.12200
C571        C  0.75774220  0.01478693  0.40222764     0.13500
C572        C  0.72148087  0.01333612  0.41351041    -0.22700
C573        C  0.78526477  0.93637378  0.44312625    -0.05700
H574        H  0.84644530  0.94660129  0.41930265     0.15000
C575        C  0.74605746  0.03986364  0.38776370    -0.15900
H576        H  0.68633493  0.03160212  0.41191526     0.09300
H577        H  0.61379332  0.86866269  0.45351938     0.07200
H578        H  0.56884495  0.89709395  0.44154719     0.08400
H579        H  0.56337530  0.90273526  0.46141789     0.07400
H580        H  0.71786535  0.09105740  0.43696809     0.02300
H581        H  0.76019953  0.06020888  0.44930120     0.02800
H582        H  0.71342035  0.10060035  0.45674388     0.06300
H583        H  0.82260441  0.91943367  0.44301867     0.05300
H584        H  0.75749182  0.90638889  0.44458330    -0.00500
H585        H  0.78302288  0.96219934  0.45275386     0.01000
H586        H  0.70736169  0.05344049  0.38756938     0.04600
H587        H  0.75083086  0.01335870  0.37838283     0.06600
H588        H  0.77082773  0.07215564  0.38610663     0.07400
C589        C  0.20599266  0.96770065  0.57278170    -0.22200
C590        C  0.24448526  0.00260470  0.57309350     0.09800
C591        C  0.24487449  0.03924671  0.58434828     0.10200
C592        C  0.20692119  0.03986204  0.59511834    -0.17100
C593        C  0.16860067  0.00454065  0.59496085    -0.27500
C594        C  0.16767451  0.96851014  0.58342161     0.18500
C595        C  0.28344016  0.00080813  0.56134048     0.12500
C596        C  0.28599502  0.07696907  0.58518530    -0.11900
H597        H  0.20784166  0.06743695  0.60391366     0.12800
C598        C  0.12603212  0.93169225  0.58149414    -0.22700
H599        H  0.20533711  0.94014380  0.56396793     0.08400
C600        C  0.32179392  0.96561723  0.56160142     0.04700
C601        C  0.35816576  0.96603009  0.55035258    -0.19900
C602        C  0.35749213  0.00121519  0.53892863    -0.12200
C603        C  0.31911446  0.03671316  0.53876695     0.13500
C604        C  0.28231165  0.03555579  0.54985691    -0.22700
C605        C  0.32474939  0.92818002  0.57387373    -0.05700
H606        H  0.38746872  0.93884480  0.55046912     0.15000
C607        C  0.31627023  0.07697890  0.52730492    -0.15900
H608        H  0.25285094  0.06259061  0.54969543     0.09300
H609        H  0.14012019  0.89370429  0.58321123     0.07200
H610        H  0.11128025  0.93430552  0.57002831     0.08400
H611        H  0.09441705  0.93811557  0.58911872     0.07400
H612        H  0.28651947  0.09973797  0.57496874     0.02300
H613        H  0.32207093  0.05792702  0.58627131     0.02800
H614        H  0.28137663  0.10222839  0.59487761     0.06300
H615        H  0.35761158  0.90402465  0.57257191     0.05300
H616        H  0.29123407  0.90430155  0.57380499    -0.00500
H617        H  0.32739378  0.94747732  0.58478108     0.01000
H618        H  0.28174591  0.07247129  0.52079401     0.04600
H619        H  0.34803817  0.07714242  0.51947073     0.06600
H620        H  0.31570170  0.11354707  0.53298352     0.07400
C621        C  0.69208166  0.02893961  0.54889645    -0.22200
C622        C  0.69017095  0.99289277  0.55999470     0.09800
C623        C  0.64974725  0.95969311  0.56060143     0.10200
C624        C  0.61330388  0.96177110  0.54958636    -0.17100
C625        C  0.61534160  0.99757626  0.53836472    -0.27500
C626        C  0.65470734  0.03233495  0.53821968     0.18500
C627        C  0.72870759  0.99336670  0.57159929     0.12500
C628        C  0.64411350  0.92335088  0.57314163    -0.11900
H629        H  0.58270212  0.93570707  0.54979188     0.12800
C630        C  0.65784337  0.07411496  0.52724039    -0.22700
H631        H  0.72242855  0.05532972  0.54877669     0.08400
C632        C  0.76818357  0.95948339  0.57148176     0.04700
C633        C  0.80181923  0.95994374  0.58331847    -0.19900
C634        C  0.79821537  0.99501012  0.59487229    -0.12200
C635        C  0.75993690  0.03061063  0.59451205     0.13500
C636        C  0.72536646  0.02883408  0.58295303    -0.22700
C637        C  0.77581522  0.92411784  0.55865628    -0.05700
H638        H  0.83174795  0.93344969  0.58337594     0.15000
C639        C  0.75417141  0.06976651  0.60639647    -0.15900
H640        H  0.69528182  0.05516598  0.58276680     0.09300
H641        H  0.69177676  0.07004961  0.52032759     0.07200
H642        H  0.65971340  0.10986197  0.53335998     0.08400
H643        H  0.62552969  0.07577539  0.51975036     0.07400
H644        H  0.64248495  0.94359544  0.58391468     0.02300
H645        H  0.67581131  0.89757837  0.57329326     0.02800
H646        H  0.60970704  0.90100766  0.57206964     0.06300
H647        H  0.80895845  0.90069713  0.56026904     0.05300
H648        H  0.78111845  0.94532283  0.54823464    -0.00500
H649        H  0.74332563  0.89934893  0.55737261     0.01000
H650        H  0.78671935  0.09495174  0.60627570     0.04600
H651        H  0.75039565  0.05218914  0.61746898     0.06600
H652        H  0.72083998  0.09275922  0.60460454     0.07400
C653        C  0.95565675  0.21034955  0.57133090    -0.22200
C654        C  0.98036431  0.25535125  0.57367419     0.09800
C655        C  0.00485369  0.26400636  0.58726571     0.10200
C656        C  0.00388235  0.22733262  0.59827042    -0.17100
C657        C  0.97868261  0.18238898  0.59600822    -0.27500
C658        C  0.95491321  0.17348346  0.58224391     0.18500
C659        C  0.98078218  0.29249528  0.56160782     0.12500
C660        C  0.03197727  0.31189244  0.59010527    -0.11900
H661        H  0.02222695  0.23406162  0.60878380     0.12800
C662        C  0.93030481  0.12497190  0.57836108    -0.22700
H663        H  0.93751111  0.20361949  0.56078118     0.08400
C664        C  0.01589575  0.29054388  0.54994007     0.04700
C665        C  0.01506025  0.32665102  0.53879530    -0.19900
C666        C  0.97948107  0.36428533  0.53895490    -0.12200
C667        C  0.94331027  0.36522379  0.55042725     0.13500
C668        C  0.94486391  0.32965170  0.56170873    -0.22700
C669        C  0.05435166  0.25050505  0.54933143    -0.05700
H670        H  0.04247019  0.32579240  0.52994476     0.15000
C671        C  0.90216260  0.40258702  0.55098464    -0.15900
H672        H  0.91751449  0.33056918  0.57058077     0.09300
H673        H  0.94725753  0.10979382  0.56802541     0.07200
H674        H  0.89026664  0.13098980  0.57642988     0.08400
H675        H  0.93434259  0.09655293  0.58705271     0.07400
H676        H  0.00581655  0.34327809  0.58943562     0.02300
H677        H  0.06168764  0.31682169  0.58165369     0.02800
H678        H  0.04922851  0.31269815  0.60128318     0.06300
H679        H  0.07913420  0.25444810  0.53950572     0.05300
H680        H  0.03596363  0.21377614  0.54863155    -0.00500
H681        H  0.07742224  0.25215492  0.55949439     0.01000
H682        H  0.86594119  0.38302336  0.55116364     0.04600
H683        H  0.90217804  0.42762173  0.54128969     0.06600
H684        H  0.90552874  0.42538800  0.56124527     0.07400
C685        C  0.96379967  0.77940224  0.56964543    -0.22200
C686        C  0.99530947  0.73875549  0.57120763     0.09800
C687        C  0.02598028  0.73597858  0.58381025     0.10200
C688        C  0.02416236  0.77369454  0.59462859    -0.17100
C689        C  0.99198767  0.81400882  0.59325863    -0.27500
C690        C  0.96179544  0.81718478  0.58046764     0.18500
C691        C  0.99447815  0.69859444  0.55980765     0.12500
C692        C  0.05992321  0.69268020  0.58596844    -0.11900
H693        H  0.04736474  0.77117744  0.60437835     0.12800
C694        C  0.92832180  0.86042037  0.57755502    -0.22700
H695        H  0.94057854  0.78165731  0.55988634     0.08400
C696        C  0.95733830  0.66171237  0.55994025     0.04700
C697        C  0.95862365  0.62350277  0.54928350    -0.19900
C698        C  0.99605727  0.62136060  0.53840335    -0.12200
C699        C  0.03336432  0.65841470  0.53827231     0.13500
C700        C  0.03198701  0.69658680  0.54896427    -0.22700
C701        C  0.91639132  0.66268924  0.57136958    -0.05700
H702        H  0.92990491  0.59537645  0.54930266     0.15000
C703        C  0.07528242  0.65863983  0.52712731    -0.15900
H704        H  0.06058258  0.72485534  0.54890860     0.09300
H705        H  0.88937610  0.84735247  0.57689950     0.07200
H706        H  0.93875688  0.87756794  0.56678774     0.08400
H707        H  0.93053572  0.88968983  0.58618721     0.07400
H708        H  0.08714109  0.69080414  0.57668897     0.02300
H709        H  0.03797602  0.65787463  0.58621784     0.02800
H710        H  0.08072178  0.69573884  0.59655106     0.06300
H711        H  0.89072661  0.63078414  0.57004747     0.05300
H712        H  0.89462891  0.69710911  0.57021888    -0.00500
H713        H  0.93233322  0.66132664  0.58270714     0.01000
H714        H  0.07329059  0.69257467  0.52028593     0.04600
H715        H  0.07478848  0.62618330  0.51955053     0.06600
H716        H  0.11113376  0.65843229  0.53308509     0.07400
C717        C  0.13060389  0.51075042  0.20774863    -0.22200
C718        C  0.17689838  0.50543530  0.21449025     0.09800
C719        C  0.17966644  0.49938949  0.22999698     0.10200
C720        C  0.13586801  0.49608976  0.23834420    -0.17100
C721        C  0.08916352  0.49884274  0.23159066    -0.27500
C722        C  0.08653170  0.50783701  0.21612709     0.18500
C723        C  0.22202279  0.50391957  0.20506578     0.12500
C724        C  0.22883543  0.49490937  0.23765599    -0.11900
H725        H  0.13802381  0.48976434  0.25021449     0.12800
C726        C  0.03782299  0.51194499  0.20823204    -0.22700
H727        H  0.12902495  0.51588799  0.19581630     0.08400
C728        C  0.23775694  0.45960604  0.19824548     0.04700
C729        C  0.28082755  0.45967885  0.18944690    -0.19900
C730        C  0.30882817  0.50307459  0.18730441    -0.12200
C731        C  0.29357334  0.54726991  0.19462051     0.13500
C732        C  0.25022180  0.54700190  0.20333372    -0.22700
C733        C  0.20915582  0.41216463  0.20033802    -0.05700
H734        H  0.29202000  0.42561099  0.18406481     0.15000
C735        C  0.32288338  0.59476432  0.19363666    -0.15900
H736        H  0.23815882  0.58059299  0.20887434     0.09300
H737        H  0.04294227  0.51588171  0.19603155     0.07200
H738        H  0.01753511  0.54494520  0.21224442     0.08400
H739        H  0.01535337  0.47830569  0.21018505     0.07400
H740        H  0.25110892  0.52893390  0.23580379     0.02300
H741        H  0.24924232  0.46258755  0.23312423     0.02800
H742        H  0.22434868  0.48988380  0.24983980     0.06300
H743        H  0.22675340  0.38072606  0.19435771     0.05300
H744        H  0.17102993  0.41638731  0.19602944    -0.00500
H745        H  0.20730578  0.40293900  0.21234206     0.01000
H746        H  0.32221389  0.60906215  0.18211094     0.04600
H747        H  0.36164788  0.58837270  0.19712931     0.06600
H748        H  0.30728583  0.62404885  0.20097833     0.07400
C749        C  0.73814156  0.48510985  0.20831184    -0.22200
C750        C  0.77994991  0.51379556  0.20484817     0.09800
C751        C  0.77928885  0.54493693  0.19233484     0.10200
C752        C  0.73647681  0.54706370  0.18361800    -0.17100
C753        C  0.69498127  0.51753355  0.18685514    -0.27500
C754        C  0.69556187  0.48652765  0.19946827     0.18500
C755        C  0.82540212  0.50758423  0.21373566     0.12500
C756        C  0.82444546  0.57426568  0.18782317    -0.11900
H757        H  0.73617117  0.57034318  0.17385688     0.12800
C758        C  0.65186938  0.45512706  0.20408317    -0.22700
H759        H  0.73898713  0.46099827  0.21788990     0.08400
C760        C  0.83817942  0.54031103  0.22540222     0.04700
C761        C  0.88247731  0.53294585  0.23318472    -0.19900
C762        C  0.91314294  0.49258643  0.22989345    -0.12200
C763        C  0.89986413  0.45961318  0.21824066     0.13500
C764        C  0.85626906  0.46772047  0.21030943    -0.22700
C765        C  0.80406050  0.58152346  0.23004476    -0.05700
H766        H  0.89202473  0.55735343  0.24235362     0.15000
C767        C  0.93068362  0.41568906  0.21374659    -0.15900
H768        H  0.84615430  0.44262058  0.20135880     0.09300
H769        H  0.64070110  0.46505761  0.21562410     0.07200
H770        H  0.66235772  0.41551238  0.20374158     0.08400
H771        H  0.61906786  0.46009231  0.19693864     0.07400
H772        H  0.85574181  0.54880490  0.18558857     0.02300
H773        H  0.83501193  0.60038880  0.19682314     0.02800
H774        H  0.81787266  0.59602369  0.17760299     0.06300
H775        H  0.81927143  0.60316135  0.23952759     0.05300
H776        H  0.76778407  0.56581785  0.23352324    -0.00500
H777        H  0.79824580  0.60717856  0.22066714     0.01000
H778        H  0.90951375  0.38110435  0.21582520     0.04600
H779        H  0.96605781  0.41387172  0.21978086     0.06600
H780        H  0.93980387  0.41786842  0.20170895     0.07400
C781        C  0.55212592  0.16740668  0.06307308    -0.22200
C782        C  0.51494186  0.20331485  0.06302129     0.09800
C783        C  0.48043138  0.20385195  0.05131568     0.10200
C784        C  0.48266073  0.16720181  0.04021258    -0.17100
C785        C  0.51952081  0.13084681  0.04027814    -0.27500
C786        C  0.55539405  0.13159166  0.05172268     0.18500
C787        C  0.51433674  0.24183293  0.07484211     0.12500
C788        C  0.44179642  0.24362911  0.05041410    -0.11900
H789        H  0.45552918  0.16686358  0.03138565     0.12800
C790        C  0.59794498  0.09584826  0.05217987    -0.22700
H791        H  0.57925561  0.16783821  0.07190622     0.08400
C792        C  0.48376625  0.23779072  0.08756299     0.04700
C793        C  0.48274532  0.27673372  0.09800480    -0.19900
C794        C  0.51198618  0.31936245  0.09608001    -0.12200
C795        C  0.54228676  0.32338198  0.08319765     0.13500
C796        C  0.54354444  0.28420294  0.07289564    -0.22700
C797        C  0.45290203  0.19211186  0.09020727    -0.05700
H798        H  0.45976827  0.27343897  0.10787663     0.15000
C799        C  0.57193337  0.36910042  0.07946098    -0.15900
H800        H  0.56647937  0.28732710  0.06300060     0.09300
H801        H  0.59505536  0.07310286  0.06238272     0.07200
H802        H  0.63339535  0.11677347  0.05240621     0.08400
H803        H  0.59926441  0.07071630  0.04240912     0.07400
H804        H  0.46011030  0.28038570  0.04973404     0.02300
H805        H  0.41757484  0.24274238  0.06041127     0.02800
H806        H  0.41808470  0.23888739  0.04045818     0.06300
H807        H  0.43146295  0.19475361  0.10075998     0.05300
H808        H  0.47731494  0.15933612  0.09083919    -0.00500
H809        H  0.42633153  0.18662241  0.08098476     0.01000
H810        H  0.61202349  0.36038223  0.07959125     0.04600
H811        H  0.56488095  0.40051345  0.08710252     0.06600
H812        H  0.56197969  0.38179053  0.06815247     0.07400
C813        C  0.47252206  0.77513155  0.08688917    -0.22200
C814        C  0.49813553  0.76468208  0.07365693     0.09800
C815        C  0.52241801  0.71899770  0.07189813     0.10200
C816        C  0.52042121  0.68453010  0.08346844    -0.17100
C817        C  0.49457070  0.69474714  0.09669405    -0.27500
C818        C  0.47079493  0.74092457  0.09853574     0.18500
C819        C  0.50025610  0.80261708  0.06190838     0.12500
C820        C  0.55003455  0.70658366  0.05776637    -0.11900
H821        H  0.53882954  0.64924503  0.08215726     0.12800
C822        C  0.44531406  0.75649926  0.11276699    -0.22700
H823        H  0.45458703  0.81065506  0.08824097     0.08400
C824        C  0.46081043  0.80920852  0.05193455     0.04700
C825        C  0.46510607  0.84502586  0.04078560    -0.19900
C826        C  0.50795003  0.87420222  0.03944437    -0.12200
C827        C  0.54758467  0.86732704  0.04940479     0.13500
C828        C  0.54303104  0.83178043  0.06059078    -0.22700
C829        C  0.41450598  0.77819740  0.05301311    -0.05700
H830        H  0.43485869  0.85061587  0.03312950     0.15000
C831        C  0.59521154  0.89642670  0.04846523    -0.15900
H832        H  0.57327122  0.82639053  0.06827071     0.09300
H833        H  0.40547935  0.76293074  0.11060398     0.07200
H834        H  0.46223161  0.79143531  0.11690609     0.08400
H835        H  0.44847121  0.72910697  0.12177976     0.07400
H836        H  0.58072255  0.73341151  0.05604972     0.02300
H837        H  0.52445325  0.70819418  0.04817001     0.02800
H838        H  0.56614610  0.66894035  0.05811471     0.06300
H839        H  0.38752552  0.78772425  0.04423383     0.05300
H840        H  0.39644046  0.78421129  0.06399302    -0.00500
H841        H  0.42399259  0.73850753  0.05174916     0.01000
H842        H  0.60041463  0.91793659  0.05890471     0.04600
H843        H  0.59625073  0.92252605  0.03902718     0.06600
H844        H  0.62669974  0.87060393  0.04703553     0.07400
C845        C  0.49155294  0.23520501  0.91643594    -0.22200
C846        C  0.52441945  0.23942576  0.92836425     0.09800
C847        C  0.55741394  0.27996373  0.92909601     0.10200
C848        C  0.55604578  0.31600780  0.91797614    -0.17100
C849        C  0.52200432  0.31278987  0.90629142    -0.27500
C850        C  0.48963516  0.27153829  0.90540530     0.18500
C851        C  0.52263952  0.20161689  0.94017351     0.12500
C852        C  0.59324195  0.28580553  0.94176486    -0.11900
H853        H  0.58106138  0.34741639  0.91856062     0.12800
C854        C  0.45405459  0.26465874  0.89270583    -0.22700
H855        H  0.46693040  0.20348341  0.91587055     0.08400
C856        C  0.48316859  0.19980291  0.95052340     0.04700
C857        C  0.48313809  0.16354394  0.96158519    -0.19900
C858        C  0.52184515  0.12946862  0.96258950    -0.12200
C859        C  0.56177575  0.13179332  0.95235376     0.13500
C860        C  0.56127919  0.16749012  0.94113946    -0.22700
C861        C  0.44152651  0.23655377  0.95004351    -0.05700
H862        H  0.45274208  0.16157101  0.96948764     0.15000
C863        C  0.60566055  0.09775696  0.95305532    -0.15900
H864        H  0.59152295  0.16907259  0.93317094     0.09300
H865        H  0.42596769  0.29439984  0.89292545     0.07200
H866        H  0.43395906  0.22881489  0.89340101     0.08400
H867        H  0.47455306  0.26530205  0.88196456     0.07400
H868        H  0.61942147  0.25437029  0.94181096     0.02300
H869        H  0.57265982  0.28689631  0.95248726     0.02800
H870        H  0.61528074  0.32043431  0.94083117     0.06300
H871        H  0.41455623  0.23074471  0.95924556     0.05300
H872        H  0.42127783  0.23284454  0.93939748    -0.00500
H873        H  0.45664795  0.27466112  0.95106320     0.01000
H874        H  0.60790902  0.07550483  0.94265415     0.04600
H875        H  0.60397204  0.07205221  0.96258343     0.06600
H876        H  0.64006442  0.12005882  0.95418001     0.07400
C877        C  0.55355440  0.83676396  0.93940154    -0.22200
C878        C  0.51659694  0.80028026  0.93913277     0.09800
C879        C  0.48030896  0.79934951  0.95050099     0.10200
C880        C  0.48050709  0.83648896  0.96149690    -0.17100
C881        C  0.51729288  0.87337541  0.96174904    -0.27500
C882        C  0.55499029  0.87278078  0.95070267     0.18500
C883        C  0.51770647  0.76247279  0.92710779     0.12500
C884        C  0.44238677  0.75837570  0.95131407    -0.11900
H885        H  0.45210730  0.83654425  0.97006428     0.12800
C886        C  0.59780039  0.90874772  0.95062597    -0.22700
H887        H  0.58197607  0.83666239  0.93083327     0.08400
C888        C  0.48646207  0.76550101  0.91464516     0.04700
C889        C  0.48743904  0.72762574  0.90390271    -0.19900
C890        C  0.52024433  0.68774357  0.90500305    -0.12200
C891        C  0.55303756  0.68580943  0.91722683     0.13500
C892        C  0.55116669  0.72324427  0.92812847    -0.22700
C893        C  0.45331400  0.80942648  0.91241602    -0.05700
H894        H  0.46302296  0.72965592  0.89441184     0.15000
C895        C  0.58915489  0.64429015  0.91953136    -0.15900
H896        H  0.57557809  0.72148327  0.93763355     0.09300
H897        H  0.59660414  0.93133192  0.94037188     0.07200
H898        H  0.63311753  0.88798560  0.95076722     0.08400
H899        H  0.59791992  0.93399474  0.96036995     0.07400
H900        H  0.46141090  0.72229613  0.95229804     0.02300
H901        H  0.41923797  0.75775771  0.94119030     0.02800
H902        H  0.41742654  0.76284162  0.96108712     0.06300
H903        H  0.43209013  0.80628802  0.90191079     0.05300
H904        H  0.47610440  0.84364510  0.91190317    -0.00500
H905        H  0.42643104  0.81286317  0.92171245     0.01000
H906        H  0.62748768  0.65928689  0.91940936     0.04600
H907        H  0.58660536  0.61469556  0.91102495     0.06600
H908        H  0.58196995  0.62694653  0.93049729     0.07400
C909        C  0.01568745  0.35930609  0.70902580    -0.22200
C910        C  0.98270382  0.32303993  0.71417820     0.09800
C911        C  0.95896843  0.32971872  0.72808930     0.10200
C912        C  0.96754870  0.37346724  0.73627475    -0.17100
C913        C  0.00094135  0.40956448  0.73116653    -0.27500
C914        C  0.02586846  0.40198786  0.71744270     0.18500
C915        C  0.97748243  0.27665132  0.70535381     0.12500
C916        C  0.92685383  0.28963984  0.73465648    -0.11900
H917        H  0.95006821  0.37840194  0.74705790     0.12800
C918        C  0.06424820  0.43743293  0.71145764    -0.22700
H919        H  0.03481204  0.35352301  0.69852212     0.08400
C920        C  0.93817107  0.26879564  0.69533722     0.04700
C921        C  0.93702712  0.22528260  0.68665207    -0.19900
C922        C  0.97479571  0.18980847  0.68753514    -0.12200
C923        C  0.01342953  0.19742999  0.69791575     0.13500
C924        C  0.01453283  0.24095116  0.70649763    -0.22700
C925        C  0.89863654  0.30719196  0.69335305    -0.05700
H926        H  0.90744058  0.21996928  0.67871948     0.15000
C927        C  0.05351652  0.16020845  0.70063000    -0.15900
H928        H  0.04461513  0.24706478  0.71423499     0.09300
H929        H  0.05290838  0.45031707  0.70029674     0.07200
H930        H  0.10030873  0.41824215  0.71038856     0.08400
H931        H  0.06968183  0.47045649  0.71862474     0.07400
H932        H  0.94888257  0.25543749  0.73595691     0.02300
H933        H  0.89500129  0.28161886  0.72731420     0.02800
H934        H  0.91212089  0.30040110  0.74576800     0.06300
H935        H  0.87103794  0.29555440  0.68490720     0.05300
H936        H  0.91578765  0.34243033  0.68964858    -0.00500
H937        H  0.87867473  0.31371117  0.70398296     0.01000
H938        H  0.08973078  0.17574499  0.69703493     0.04600
H939        H  0.04716624  0.12457843  0.69485597     0.06600
H940        H  0.05517826  0.15186808  0.71269146     0.07400
C941        C  0.94878495  0.74662382  0.70362555    -0.22200
C942        C  0.98904480  0.71422156  0.70302887     0.09800
C943        C  0.02862179  0.72390503  0.69314917     0.10200
C944        C  0.02698535  0.76570158  0.68402277    -0.17100
C945        C  0.98656904  0.79816110  0.68444201    -0.27500
C946        C  0.94696276  0.78850849  0.69444356     0.18500
C947        C  0.99001396  0.67079070  0.71302911     0.12500
C948        C  0.07291874  0.69036867  0.69236215    -0.11900
H949        H  0.05734436  0.77260469  0.67638404     0.12800
C950        C  0.90342130  0.82282580  0.69583510    -0.22700
H951        H  0.91877681  0.73911351  0.71135375     0.08400
C952        C  0.00560217  0.67524122  0.72789073     0.04700
C953        C  0.01146756  0.63247626  0.73641900    -0.19900
C954        C  0.00316079  0.58491134  0.73041793    -0.12200
C955        C  0.98534549  0.58085188  0.71561842     0.13500
C956        C  0.97872501  0.62393776  0.70721566    -0.22700
C957        C  0.01751605  0.72502762  0.73460687    -0.05700
H958        H  0.02377561  0.63620144  0.74782420     0.15000
C959        C  0.97502548  0.53248156  0.70786036    -0.15900
H960        H  0.96653106  0.62083837  0.69577628     0.09300
H961        H  0.87751954  0.81110556  0.70479695     0.07200
H962        H  0.88240003  0.82310820  0.68528270     0.08400
H963        H  0.91652350  0.86081182  0.69851194     0.07400
H964        H  0.06118914  0.65264015  0.68891660     0.02300
H965        H  0.09073208  0.68862427  0.70343753     0.02800
H966        H  0.10093078  0.70368563  0.68421149     0.06300
H967        H  0.02985243  0.72190835  0.74632074     0.05300
H968        H  0.98416162  0.74875925  0.73444702    -0.00500
H969        H  0.04762024  0.74306383  0.72812915     0.01000
H970        H  0.93531297  0.53043506  0.70481639     0.04600
H971        H  0.98372361  0.50007512  0.71461861     0.06600
H972        H  0.99775512  0.52998881  0.69755400     0.07400
C973        C  0.28070304  0.46508209  0.79344689    -0.22200
C974        C  0.23860659  0.49180504  0.79769966     0.09800
C975        C  0.23840567  0.51787045  0.81134775     0.10200
C976        C  0.28073184  0.51726344  0.82034060    -0.17100
C977        C  0.32303616  0.49061393  0.81610280    -0.27500
C978        C  0.32305294  0.46430766  0.80242527     0.18500
C979        C  0.19558009  0.49303469  0.78751134     0.12500
C980        C  0.19343125  0.54610994  0.81642542    -0.11900
H981        H  0.28057523  0.53719271  0.83084137     0.12800
C982        C  0.36746583  0.43666902  0.79662399    -0.22700
H983        H  0.28080731  0.44537468  0.78290364     0.08400
C984        C  0.19136699  0.52953292  0.77655494     0.04700
C985        C  0.14951277  0.53004534  0.76736188    -0.19900
C986        C  0.11087152  0.49471720  0.76871525    -0.12200
C987        C  0.11675872  0.45685330  0.77962019     0.13500
C988        C  0.15869110  0.45698484  0.78880606    -0.22700
C989        C  0.23137924  0.56803600  0.77454792    -0.05700
H990        H  0.14831823  0.55861685  0.75915361     0.15000
C991        C  0.08031787  0.41516819  0.78224989    -0.15900
H992        H  0.16260584  0.42856806  0.79716225     0.09300
H993        H  0.37833682  0.45151015  0.78558583     0.07200
H994        H  0.35787798  0.39693573  0.79534106     0.08400
H995        H  0.40008786  0.43997948  0.80394464     0.07400
H996        H  0.16137821  0.52049032  0.81745027     0.02300
H997        H  0.18457837  0.57523159  0.80824598     0.02800
H998        H  0.19932231  0.56420127  0.82740338     0.06300
H999        H  0.22265298  0.59414296  0.76546979     0.05300
H1000       H  0.26693605  0.54972123  0.77175378    -0.00500
H1001       H  0.23587672  0.58977442  0.78496901     0.01000
H1002       H  0.09925648  0.37927717  0.78045116     0.04600
H1003       H  0.04757174  0.41520009  0.77502122     0.06600
H1004       H  0.06677561  0.41687467  0.79392692     0.07400
C1005       C  0.74709036  0.52402806  0.79004873    -0.22200
C1006       C  0.78962342  0.49725498  0.79352279     0.09800
C1007       C  0.78981172  0.46737189  0.80632958     0.10200
C1008       C  0.74782498  0.46608805  0.81564453    -0.17100
C1009       C  0.70573795  0.49429988  0.81248646    -0.27500
C1010       C  0.70485753  0.52238407  0.79923555     0.18500
C1011       C  0.83412757  0.50173842  0.78384159     0.12500
C1012       C  0.83470855  0.43752805  0.81026043    -0.11900
H1013       H  0.74853266  0.44428025  0.82570593     0.12800
C1014       C  0.65966765  0.54979235  0.79415147    -0.22700
H1015       H  0.74677682  0.54620849  0.78005197     0.08400
C1016       C  0.84187149  0.47010812  0.77151640     0.04700
C1017       C  0.88699505  0.47247125  0.76367392    -0.19900
C1018       C  0.92407696  0.50648944  0.76770439    -0.12200
C1019       C  0.91396628  0.54156099  0.77911322     0.13500
C1020       C  0.86975292  0.53772836  0.78730928    -0.22700
C1021       C  0.80277865  0.43348600  0.76681037    -0.05700
H1022       H  0.89389645  0.44658186  0.75466791     0.15000
C1023       C  0.94783607  0.58454578  0.78259351    -0.15900
H1024       H  0.86283622  0.56323877  0.79643407     0.09300
H1025       H  0.64977445  0.53721089  0.78276311     0.07200
H1026       H  0.66770133  0.59006112  0.79390894     0.08400
H1027       H  0.62678765  0.54332693  0.80129610     0.07400
H1028       H  0.86693475  0.46251498  0.81195698     0.02300
H1029       H  0.84329910  0.41108883  0.80111929     0.02800
H1030       H  0.82879906  0.41609097  0.82061488     0.06300
H1031       H  0.81465425  0.41161991  0.75692777     0.05300
H1032       H  0.76838581  0.45342225  0.76392155    -0.00500
H1033       H  0.79474394  0.40748477  0.77601714     0.01000
H1034       H  0.92652494  0.61947900  0.78214205     0.04600
H1035       H  0.97872873  0.58841013  0.77452504     0.06600
H1036       H  0.96312873  0.58042765  0.79394333     0.07400
C1037       C  0.66257010  0.96586828  0.73012908    -0.22200
C1038       C  0.66731702  0.99738568  0.71790540     0.09800
C1039       C  0.62888669  0.03049414  0.71470219     0.10200
C1040       C  0.58600203  0.03043266  0.72355382    -0.17100
C1041       C  0.57933497  0.99679860  0.73529744    -0.27500
C1042       C  0.61894883  0.96452355  0.73877706     0.18500
C1043       C  0.71071444  0.99243425  0.70778884     0.12500
C1044       C  0.63254187  0.06494715  0.70164335    -0.11900
H1045       H  0.55649620  0.05584125  0.72092517     0.12800
C1046       C  0.61647506  0.92608643  0.75076243    -0.22700
H1047       H  0.69229068  0.94039805  0.73250845     0.08400
C1048       C  0.75463869  0.01984680  0.70994690     0.04700
C1049       C  0.79305064  0.01644464  0.69934905    -0.19900
C1050       C  0.78881144  0.98559687  0.68677622    -0.12200
C1051       C  0.74471775  0.95789202  0.68470254     0.13500
C1052       C  0.70635524  0.96163168  0.69526913    -0.22700
C1053       C  0.76062069  0.05292661  0.72335198    -0.05700
H1054       H  0.82661696  0.03795045  0.70088035     0.15000
C1055       C  0.73656626  0.92636353  0.67104644    -0.15900
H1056       H  0.67219562  0.94117198  0.69362483     0.09300
H1057       H  0.64507220  0.93413628  0.75926641     0.07200
H1058       H  0.62357896  0.88901183  0.74584694     0.08400
H1059       H  0.58037195  0.92412301  0.75632661     0.07400
H1060       H  0.63627449  0.04323283  0.69117864     0.02300
H1061       H  0.66530725  0.08948771  0.70290080     0.02800
H1062       H  0.59922744  0.08854447  0.70070620     0.06300
H1063       H  0.79718185  0.07186955  0.72337057     0.05300
H1064       H  0.75747155  0.03062699  0.73363751    -0.00500
H1065       H  0.73138848  0.08158422  0.72345804     0.01000
H1066       H  0.76248514  0.89480097  0.67094542     0.04600
H1067       H  0.74209960  0.94888824  0.66088814     0.06600
H1068       H  0.69847000  0.91078620  0.67073069     0.07400
C1069       C  0.29993940  0.98536531  0.73057967    -0.22200
C1070       C  0.30311002  0.99298919  0.71523920     0.09800
C1071       C  0.34902291  0.00598041  0.70886596     0.10200
C1072       C  0.39146334  0.00707130  0.71777530    -0.17100
C1073       C  0.38965579  0.99636511  0.73314932    -0.27500
C1074       C  0.34192499  0.98859525  0.73970681     0.18500
C1075       C  0.25720481  0.99222990  0.70625288     0.12500
C1076       C  0.35296805  0.02101670  0.69276243    -0.11900
H1077       H  0.42545094  0.01871774  0.71254111     0.12800
C1078       C  0.33249835  0.98474560  0.75624174    -0.22700
H1079       H  0.26397311  0.97816263  0.73555503     0.08400
C1080       C  0.24560334  0.95279323  0.69653148     0.04700
C1081       C  0.20465741  0.95683319  0.68704892    -0.19900
C1082       C  0.17401449  0.99882165  0.68732689    -0.12200
C1083       C  0.18354396  0.03622670  0.69812746     0.13500
C1084       C  0.22534806  0.03265816  0.70725257    -0.22700
C1085       C  0.27556113  0.90596084  0.69647033    -0.05700
H1086       H  0.19682172  0.92697598  0.67931008     0.15000
C1087       C  0.14948625  0.07922468  0.70066814    -0.15900
H1088       H  0.23374002  0.06204150  0.71511871     0.09300
H1089       H  0.31798814  0.94731547  0.75886186     0.07200
H1090       H  0.30436726  0.01248025  0.75962305     0.08400
H1091       H  0.36522533  0.99199337  0.76321029     0.07400
H1092       H  0.32906984  0.05353380  0.69079078     0.02300
H1093       H  0.34104318  0.99036475  0.68535784     0.02800
H1094       H  0.39145930  0.03122093  0.68960153     0.06300
H1095       H  0.26095291  0.87841193  0.68838011     0.05300
H1096       H  0.27425027  0.88919407  0.70770237    -0.00500
H1097       H  0.31465450  0.91376947  0.69349417     0.01000
H1098       H  0.11064804  0.06591702  0.70139478     0.04600
H1099       H  0.15427806  0.10655633  0.69167427     0.06600
H1100       H  0.15781950  0.09889625  0.71125319     0.07400
C1101       C  0.53604466  0.15638879  0.77971662    -0.22200
C1102       C  0.50348950  0.16248162  0.79180011     0.09800
C1103       C  0.46600822  0.12684095  0.79432320     0.10200
C1104       C  0.46092123  0.08689952  0.78438557    -0.17100
C1105       C  0.49326484  0.08098785  0.77224976    -0.27500
C1106       C  0.53172275  0.11572333  0.76999606     0.18500
C1107       C  0.50794154  0.20758101  0.80123578     0.12500
C1108       C  0.43171543  0.13062596  0.80755569    -0.11900
H1109       H  0.43127576  0.06031495  0.78600451     0.12800
C1110       C  0.56708697  0.11097212  0.75706996    -0.22700
H1111       H  0.56447101  0.18404820  0.77776234     0.08400
C1112       C  0.54788231  0.21486296  0.81106659     0.04700
C1113       C  0.55048509  0.25858658  0.81957123    -0.19900
C1114       C  0.51372684  0.29494818  0.81862270    -0.12200
C1115       C  0.47375811  0.28751090  0.80872894     0.13500
C1116       C  0.47166332  0.24413760  0.80009059    -0.22700
C1117       C  0.58714876  0.17608343  0.81282381    -0.05700
H1118       H  0.58091588  0.26386858  0.82721264     0.15000
C1119       C  0.43394758  0.32568526  0.80684720    -0.15900
H1120       H  0.44147727  0.23858486  0.79236310     0.09300
H1121       H  0.58848523  0.07630425  0.75805983     0.07200
H1122       H  0.59388322  0.14221771  0.75669345     0.08400
H1123       H  0.54622461  0.11048066  0.74647487     0.07400
H1124       H  0.40933770  0.16476550  0.80689614     0.02300
H1125       H  0.45368715  0.13143519  0.81794823     0.02800
H1126       H  0.40579448  0.09867834  0.80812260     0.06300
H1127       H  0.61479520  0.18694252  0.82134512     0.05300
H1128       H  0.60712449  0.17041979  0.80213875    -0.00500
H1129       H  0.56976884  0.14068684  0.81630264     0.01000
H1130       H  0.40755388  0.31509486  0.79794566     0.04600
H1131       H  0.45102288  0.36164871  0.80379725     0.06600
H1132       H  0.41234398  0.32983056  0.81730449     0.07400
C1133       C  0.49712525  0.86677393  0.79495306    -0.22200
C1134       C  0.50685848  0.82129882  0.78792722     0.09800
C1135       C  0.51094505  0.81910663  0.77227145     0.10200
C1136       C  0.50375682  0.86210467  0.76398722    -0.17100
C1137       C  0.49343211  0.90742593  0.77095967    -0.27500
C1138       C  0.49039403  0.91000145  0.78661641     0.18500
C1139       C  0.50956098  0.77582066  0.79701437     0.12500
C1140       C  0.52314248  0.77151603  0.76427903    -0.11900
H1141       H  0.50592695  0.86043004  0.75194860     0.12800
C1142       C  0.47780892  0.95765241  0.79445131    -0.22700
H1143       H  0.49350487  0.86811533  0.80696103     0.08400
C1144       C  0.55059423  0.76545987  0.80606797     0.04700
C1145       C  0.55101149  0.72155208  0.81432554    -0.19900
C1146       C  0.51170597  0.68731673  0.81354663    -0.12200
C1147       C  0.47210205  0.69656250  0.80369099     0.13500
C1148       C  0.47070207  0.74150513  0.79605700    -0.22700
C1149       C  0.59402819  0.80045348  0.80692164    -0.05700
H1150       H  0.58185370  0.71447062  0.82163543     0.15000
C1151       C  0.43204102  0.65927806  0.80023109    -0.15900
H1152       H  0.43969013  0.74916709  0.78884679     0.09300
H1153       H  0.50646091  0.98599231  0.79197448     0.07200
H1154       H  0.47588952  0.95298888  0.80670452     0.08400
H1155       H  0.44124624  0.97082040  0.79061905     0.07400
H1156       H  0.49349748  0.74372143  0.76616699     0.02300
H1157       H  0.55877281  0.75693896  0.76842366     0.02800
H1158       H  0.52675713  0.77693964  0.75208665     0.06300
H1159       H  0.62354875  0.78612050  0.81424097     0.05300
H1160       H  0.58193317  0.83669353  0.81145633    -0.00500
H1161       H  0.61006733  0.80576166  0.79564176     0.01000
H1162       H  0.42846752  0.65519907  0.78798286     0.04600
H1163       H  0.39617908  0.67221532  0.80487269     0.06600
H1164       H  0.44022139  0.62190534  0.80444869     0.07400
C1165       C  0.20777025  0.53486955  0.05232518    -0.22200
C1166       C  0.20772897  0.49629258  0.06260452     0.09800
C1167       C  0.17116887  0.45896875  0.06185942     0.10200
C1168       C  0.13606111  0.46034221  0.05046503    -0.17100
C1169       C  0.13588561  0.49913302  0.04018193    -0.27500
C1170       C  0.17182261  0.53721669  0.04122235     0.18500
C1171       C  0.24534109  0.49676902  0.07440673     0.12500
C1172       C  0.16853130  0.41856993  0.07329344    -0.11900
H1173       H  0.10797924  0.43168065  0.04972049     0.12800
C1174       C  0.17259018  0.58147801  0.03111918    -0.22700
H1175       H  0.23552513  0.56384319  0.05315753     0.08400
C1176       C  0.28958154  0.46982626  0.07295492     0.04700
C1177       C  0.32335116  0.47017703  0.08472849    -0.19900
C1178       C  0.31434356  0.49796862  0.09769221    -0.12200
C1179       C  0.27001890  0.52546936  0.09903434     0.13500
C1180       C  0.23627599  0.52470566  0.08727538    -0.22700
C1181       C  0.30152830  0.44176429  0.05886385    -0.05700
H1182       H  0.35748828  0.44954632  0.08368300     0.15000
C1183       C  0.25567613  0.55432945  0.11280161    -0.15900
H1184       H  0.20209081  0.54532788  0.08825524     0.09300
H1185       H  0.20786745  0.58220215  0.02473060     0.07200
H1186       H  0.16992408  0.61578122  0.03792204     0.08400
H1187       H  0.14164689  0.58179554  0.02310997     0.07400
H1188       H  0.16314956  0.43510039  0.08452109     0.02300
H1189       H  0.20328103  0.39695912  0.07316991     0.02800
H1190       H  0.13729439  0.39269968  0.07114589     0.06300
H1191       H  0.33798295  0.42318665  0.05950814     0.05300
H1192       H  0.30266348  0.46767963  0.04934398    -0.00500
H1193       H  0.27290861  0.41307923  0.05674602     0.01000
H1194       H  0.25419693  0.59430957  0.11014280     0.04600
H1195       H  0.28102549  0.54909301  0.12224675     0.06600
H1196       H  0.21847252  0.54212292  0.11665096     0.07400
C1197       C  0.83120976  0.46643409  0.05964594    -0.22200
C1198       C  0.80317763  0.50919033  0.06204262     0.09800
C1199       C  0.81295576  0.55182218  0.05353515     0.10200
C1200       C  0.85059751  0.55062532  0.04271887    -0.17100
C1201       C  0.87864290  0.50782747  0.04029326    -0.27500
C1202       C  0.86877305  0.46510622  0.04882219     0.18500
C1203       C  0.76369482  0.50862648  0.07352554     0.12500
C1204       C  0.78335092  0.59831143  0.05579699    -0.11900
H1205       H  0.85836769  0.58320481  0.03613548     0.12800
C1206       C  0.89670416  0.41750701  0.04668843    -0.22700
H1207       H  0.82352720  0.43380483  0.06622318     0.08400
C1208       C  0.71691077  0.48717529  0.07072354     0.04700
C1209       C  0.68009445  0.48921623  0.08179696    -0.19900
C1210       C  0.68919410  0.51235817  0.09551223    -0.12200
C1211       C  0.73653413  0.53232032  0.09849307     0.13500
C1212       C  0.77323970  0.53039187  0.08740528    -0.22700
C1213       C  0.70581269  0.46266028  0.05602041    -0.05700
H1214       H  0.64392607  0.47317202  0.07970485     0.15000
C1215       C  0.74892664  0.55415152  0.11348493    -0.15900
H1216       H  0.80957200  0.54597483  0.08953018     0.09300
H1217       H  0.87034131  0.38738882  0.04378484     0.07200
H1218       H  0.91569615  0.40792109  0.05718522     0.08400
H1219       H  0.92492668  0.41944966  0.03771831     0.07400
H1220       H  0.78805540  0.61220405  0.06734815     0.02300
H1221       H  0.74356878  0.59044943  0.05380231     0.02800
H1222       H  0.79534136  0.62799157  0.04807820     0.06300
H1223       H  0.66723733  0.44835942  0.05560507     0.05300
H1224       H  0.73119651  0.43105617  0.05418807    -0.00500
H1225       H  0.71086183  0.48966354  0.04688610     0.01000
H1226       H  0.78838099  0.56561886  0.11411934     0.04600
H1227       H  0.74193439  0.52632842  0.12228733     0.06600
H1228       H  0.72599355  0.58728766  0.11568427     0.07400
C1229       C  0.25823785  0.54394548  0.91932652    -0.22200
C1230       C  0.25469907  0.50471799  0.92939169     0.09800
C1231       C  0.28803456  0.46490239  0.92804130     0.10200
C1232       C  0.32337159  0.46482851  0.91649723    -0.17100
C1233       C  0.32732883  0.50415320  0.90640193    -0.27500
C1234       C  0.29449303  0.54470671  0.90801623     0.18500
C1235       C  0.21564680  0.50604232  0.94118443     0.12500
C1236       C  0.28735686  0.42307232  0.93902160    -0.11900
H1237       H  0.34869462  0.43406730  0.91555050     0.12800
C1238       C  0.29654765  0.58869129  0.89783165    -0.22700
H1239       H  0.23239043  0.57428434  0.92037082     0.08400
C1240       C  0.21755462  0.54006576  0.95317594     0.04700
C1241       C  0.17942846  0.54009180  0.96390388    -0.19900
C1242       C  0.13976977  0.50639474  0.96309539    -0.12200
C1243       C  0.13870864  0.47137319  0.95130938     0.13500
C1244       C  0.17603369  0.47240546  0.94037063    -0.22700
C1245       C  0.26028316  0.57563383  0.95484799    -0.05700
H1246       H  0.18054207  0.56647916  0.97302463     0.15000
C1247       C  0.09952645  0.43169396  0.95007631    -0.15900
H1248       H  0.17458040  0.44619657  0.93120435     0.09300
H1249       H  0.33262735  0.60805461  0.89903507     0.07200
H1250       H  0.26711134  0.61589546  0.90050509     0.08400
H1251       H  0.29141714  0.57648870  0.88612747     0.07400
H1252       H  0.25150761  0.40302370  0.93851965     0.02300
H1253       H  0.29282876  0.43795124  0.95043683     0.02800
H1254       H  0.31717699  0.39596982  0.93668164     0.06300
H1255       H  0.25689205  0.59826957  0.96515236     0.05300
H1256       H  0.26170258  0.60125313  0.94527886    -0.00500
H1257       H  0.29549875  0.55479250  0.95537519     0.01000
H1258       H  0.07829125  0.43683319  0.93967752     0.04600
H1259       H  0.07318480  0.43156158  0.95955933     0.06600
H1260       H  0.11745879  0.39487620  0.94971761     0.07400
C1261       C  0.84554516  0.47432654  0.94120778    -0.22200
C1262       C  0.80943700  0.51123640  0.94098901     0.09800
C1263       C  0.80969849  0.54877419  0.95195130     0.10200
C1264       C  0.84705019  0.54925470  0.96271898    -0.17100
C1265       C  0.88363365  0.51261861  0.96286778    -0.27500
C1266       C  0.88240007  0.47415713  0.95210822     0.18500
C1267       C  0.77284969  0.51086499  0.92881071     0.12500
C1268       C  0.77071753  0.58832715  0.95221014    -0.11900
H1269       H  0.84776575  0.57823785  0.97110205     0.12800
C1270       C  0.91869678  0.43202206  0.95190438    -0.22700
H1271       H  0.84489795  0.44539633  0.93280254     0.08400
C1272       C  0.78374381  0.53318503  0.91504057     0.04700
C1273       C  0.74805192  0.53239069  0.90377537    -0.19900
C1274       C  0.70219408  0.50884850  0.90588844    -0.12200
C1275       C  0.69123095  0.48653372  0.91972557     0.13500
C1276       C  0.72684645  0.48782756  0.93103004    -0.22700
C1277       C  0.83316005  0.55757894  0.91225985    -0.05700
H1278       H  0.75628350  0.54945842  0.89316482     0.15000
C1279       C  0.64200951  0.46249917  0.92313466    -0.15900
H1280       H  0.71860637  0.47100169  0.94167906     0.09300
H1281       H  0.94009956  0.43256818  0.94132471     0.07200
H1282       H  0.89822370  0.39642873  0.95266620     0.08400
H1283       H  0.94518647  0.43334708  0.96124219     0.07400
H1284       H  0.73359692  0.57111989  0.95358908     0.02300
H1285       H  0.77181872  0.60919971  0.94162813     0.02800
H1286       H  0.77638624  0.61492500  0.96151784     0.06300
H1287       H  0.83567061  0.57333343  0.90090734     0.05300
H1288       H  0.86316525  0.53003920  0.91343303    -0.00500
H1289       H  0.83898016  0.58800224  0.92042099     0.01000
H1290       H  0.64765694  0.42290213  0.92576333     0.04600
H1291       H  0.61540549  0.46473754  0.91385089     0.06600
H1292       H  0.62488037  0.48106622  0.93292801     0.07400
C1293       C  0.62221022  0.99079830  0.29348925    -0.22200
C1294       C  0.66935781  0.98748748  0.28697446     0.09800
C1295       C  0.67411313  0.98635481  0.27133995     0.10200
C1296       C  0.63155628  0.98990811  0.26255412    -0.17100
C1297       C  0.58445736  0.99474559  0.26904897    -0.27500
C1298       C  0.57965056  0.99493940  0.28471159     0.18500
C1299       C  0.71337212  0.98824710  0.29674084     0.12500
C1300       C  0.72417535  0.98321486  0.26394920    -0.11900
H1301       H  0.63508488  0.99026367  0.25053829     0.12800
C1302       C  0.53027052  0.00240180  0.29221903    -0.22700
H1303       H  0.61896971  0.99181219  0.30551078     0.08400
C1304       C  0.72990688  0.03243308  0.30351484     0.04700
C1305       C  0.77135272  0.03150939  0.31282377    -0.19900
C1306       C  0.79723770  0.98747215  0.31547450    -0.12200
C1307       C  0.78107546  0.94336474  0.30829456     0.13500
C1308       C  0.73918552  0.94436263  0.29912245    -0.22700
C1309       C  0.70425902  0.08078502  0.30071874    -0.05700
H1310       H  0.78312979  0.06559860  0.31809639     0.15000
C1311       C  0.80840813  0.89537529  0.30977366    -0.15900
H1312       H  0.72647064  0.91072641  0.29371380     0.09300
H1313       H  0.53368460  0.00387635  0.30451717     0.07200
H1314       H  0.50495149  0.97140093  0.28940897     0.08400
H1315       H  0.51395963  0.03780454  0.28853907     0.07400
H1316       H  0.74256349  0.94828019  0.26710112     0.02300
H1317       H  0.74748545  0.01503900  0.26750075     0.02800
H1318       H  0.72131744  0.98388879  0.25163549     0.06300
H1319       H  0.72270617  0.11206700  0.30656329     0.05300
H1320       H  0.66538318  0.07881084  0.30471799    -0.00500
H1321       H  0.70466301  0.08873871  0.28861930     0.01000
H1322       H  0.80616123  0.88204323  0.32139834     0.04600
H1323       H  0.84755419  0.90121313  0.30644870     0.06600
H1324       H  0.79274570  0.86590887  0.30251061     0.07400
C1325       C  0.34315743  0.94737123  0.28203588    -0.22200
C1326       C  0.33040085  0.98605847  0.29170357     0.09800
C1327       C  0.36039947  0.02877089  0.29241131     0.10200
C1328       C  0.40138888  0.03276982  0.28287164    -0.17100
C1329       C  0.41285734  0.99525222  0.27255531    -0.27500
C1330       C  0.38378119  0.95148501  0.27232085     0.18500
C1331       C  0.28307141  0.98302286  0.29998634     0.12500
C1332       C  0.34795045  0.07096162  0.30277231    -0.11900
H1333       H  0.42371270  0.06618103  0.28309463     0.12800
C1334       C  0.39251662  0.91054596  0.26121081    -0.22700
H1335       H  0.31973352  0.91473003  0.28163920     0.08400
C1336       C  0.23755336  0.99117434  0.29279670     0.04700
C1337       C  0.19359146  0.99018990  0.30115038    -0.19900
C1338       C  0.19429784  0.98132890  0.31646394    -0.12200
C1339       C  0.23989957  0.97322881  0.32368439     0.13500
C1340       C  0.28377241  0.97379370  0.31528633    -0.22700
C1341       C  0.23548406  0.00184952  0.27638307    -0.05700
H1342       H  0.15849654  0.99656659  0.29573111     0.15000
C1343       C  0.24392265  0.96488032  0.34019598    -0.15900
H1344       H  0.31887727  0.96779577  0.32074241     0.09300
H1345       H  0.36386484  0.88108597  0.26202736     0.07200
H1346       H  0.42869675  0.89283710  0.26313558     0.08400
H1347       H  0.39100426  0.92564522  0.24983167     0.07400
H1348       H  0.34883433  0.05815438  0.31446492     0.02300
H1349       H  0.31044896  0.08507323  0.30025084     0.02800
H1350       H  0.37468197  0.10206223  0.30165500     0.06300
H1351       H  0.19702953  0.00856854  0.27264680     0.05300
H1352       H  0.25016146  0.96994975  0.26994439    -0.00500
H1353       H  0.25797195  0.03525486  0.27385482     0.01000
H1354       H  0.26038861  0.92804193  0.34220753     0.04600
H1355       H  0.20790439  0.96651221  0.34610318     0.06600
H1356       H  0.26828148  0.99370324  0.34514881     0.07400
C1357       C  0.50397948  0.19090585  0.23099421    -0.22200
C1358       C  0.49363407  0.18911562  0.21580388     0.09800
C1359       C  0.47902009  0.14416488  0.20920506     0.10200
C1360       C  0.47713512  0.10132107  0.21785260    -0.17100
C1361       C  0.49100446  0.10150269  0.23299046    -0.27500
C1362       C  0.50138580  0.14829439  0.23980642     0.18500
C1363       C  0.49940258  0.23448322  0.20686509     0.12500
C1364       C  0.46604717  0.14123428  0.19292976    -0.11900
H1365       H  0.46376709  0.06814024  0.21253008     0.12800
C1366       C  0.50948686  0.15596361  0.25627405    -0.22700
H1367       H  0.51382366  0.22608949  0.23605464     0.08400
C1368       C  0.45959712  0.26657217  0.20435041     0.04700
C1369       C  0.46641014  0.30706442  0.19487379    -0.19900
C1370       C  0.51231029  0.31674533  0.18792336    -0.12200
C1371       C  0.55289361  0.28523784  0.19108256     0.13500
C1372       C  0.54553675  0.24444379  0.20043174    -0.22700
C1373       C  0.40996261  0.25791821  0.21162718    -0.05700
H1374       H  0.43531309  0.33110528  0.19278040     0.15000
C1375       C  0.60389762  0.29274929  0.18465194    -0.15900
H1376       H  0.57588709  0.21954096  0.20263190     0.09300
H1377       H  0.48353550  0.18458439  0.26048628     0.07200
H1378       H  0.54795580  0.16903765  0.25818760     0.08400
H1379       H  0.50286283  0.12279609  0.26308773     0.07400
H1380       H  0.49840397  0.15272118  0.18609214     0.02300
H1381       H  0.43450435  0.16595403  0.19055643     0.02800
H1382       H  0.45537446  0.10315208  0.18949330     0.06300
H1383       H  0.38279923  0.28665911  0.20852355     0.05300
H1384       H  0.41407208  0.25871932  0.22390336    -0.00500
H1385       H  0.39482429  0.22141363  0.20820407     0.01000
H1386       H  0.61988005  0.32774852  0.18901734     0.04600
H1387       H  0.60238621  0.29265163  0.17232285     0.06600
H1388       H  0.62958694  0.26283518  0.18789033     0.07400
C1389       C  0.52926024  0.77687315  0.19794972    -0.22200
C1390       C  0.49309338  0.77623909  0.20915473     0.09800
C1391       C  0.45946439  0.73629074  0.20996613     0.10200
C1392       C  0.46254646  0.69795756  0.19937231    -0.17100
C1393       C  0.49852147  0.69869109  0.18800512    -0.27500
C1394       C  0.53251448  0.73873658  0.18734881     0.18500
C1395       C  0.48883699  0.82032847  0.21893219     0.12500
C1396       C  0.42045702  0.73420302  0.22198324    -0.11900
H1397       H  0.43658651  0.66733289  0.19993902     0.12800
C1398       C  0.57079314  0.74312003  0.17515564    -0.22700
H1399       H  0.55434496  0.80821243  0.19729726     0.08400
C1400       C  0.52283586  0.83015602  0.23044049     0.04700
C1401       C  0.52132173  0.87597010  0.23790396    -0.19900
C1402       C  0.48674072  0.91210940  0.23401966    -0.12200
C1403       C  0.45056281  0.90068420  0.22311116     0.13500
C1404       C  0.45269949  0.85525963  0.21559087    -0.22700
C1405       C  0.56100614  0.79255469  0.23466793    -0.05700
H1406       H  0.54853672  0.88436784  0.24636992     0.15000
C1407       C  0.40858273  0.93468673  0.21918324    -0.15900
H1408       H  0.42631919  0.84727116  0.20684379     0.09300
H1409       H  0.59771340  0.71245307  0.17592136     0.07200
H1410       H  0.59202565  0.77829601  0.17597103     0.08400
H1411       H  0.55245770  0.74222605  0.16413859     0.07400
H1412       H  0.39533416  0.76632260  0.22105648     0.02300
H1413       H  0.43837150  0.73502879  0.23306117     0.02800
H1414       H  0.39772386  0.69996713  0.22117282     0.06300
H1415       H  0.58425388  0.80578724  0.24404307     0.05300
H1416       H  0.58572395  0.78471571  0.22504631    -0.00500
H1417       H  0.54226906  0.75781198  0.23811677     0.01000
H1418       H  0.41272737  0.94679420  0.20746720     0.04600
H1419       H  0.40604560  0.96776902  0.22644027     0.06600
H1420       H  0.37290073  0.91450302  0.22038663     0.07400
loop_ 
_geom_bond_atom_site_label_1 
_geom_bond_atom_site_label_2 
_geom_bond_distance 
_geom_bond_site_symmetry_2 
_ccdc_geom_bond_type 
C1            C2   1.535       .  S
C1            C7   1.546       .  S
C1            C5   1.535       .  S
C1         C1361   1.540       .  S
C2            H9   1.087       .  S
C2            C3   1.366       .  D
C3            C4   1.537   1_545  S
C3         C1329   1.486   1_545  S
C4            C8   1.539       .  S
C4            C6   1.541   1_565  S
C4           H10   1.108       .  S
C5           H11   1.086       .  S
C5            C6   1.364       .  D
C6         C1297   1.483   1_545  S
C7           H12   1.082       .  S
C7            C8   1.365   1_545  D
C8         C1402   1.486       .  S
N13          C18   1.352   1_554  A
N13          C17   1.354       .  A
N13          H45   1.039       .  S
N14          C21   1.351   1_455  A
N14          C22   1.349       .  A
N15          C20   1.354   1_554  A
N15          C19   1.351       .  A
N15          H46   1.039       .  S
N16          C23   1.350   1_455  A
N16          C24   1.352       .  A
C17          C25   1.385       .  A
C17          C33   1.412       .  A
C18          C34   1.415       .  A
C18          C26   1.388       .  A
C19          C27   1.387       .  A
C19          C36   1.414       .  A
C20          C35   1.416       .  A
C20          C28   1.387       .  A
C21          C33   1.409       .  A
C21          C29   1.385       .  A
C22          C36   1.412       .  A
C22          C30   1.388       .  A
C23          C31   1.386       .  A
C23          C34   1.414       .  A
C24          C32   1.386       .  A
C24          C35   1.415       .  A
C25          C26   1.375   1_554  A
C25          H37   1.082       .  S
C26          H38   1.082       .  S
C27          C28   1.377   1_554  A
C27          H39   1.082       .  S
C28          H40   1.082       .  S
C29          C30   1.372   1_655  A
C29          H41   1.082       .  S
C30          H42   1.082       .  S
C31          C32   1.376   1_655  A
C31          H43   1.082       .  S
C32          H44   1.082       .  S
C33        C1201   1.486       .  S
C34        C1265   1.488       .  S
C35        C1242   1.497       .  S
C36        C1169   1.483       .  S
C47          C48   1.535       .  S
C47          C53   1.548       .  S
C47          C51   1.535   1_565  S
C47        C1073   1.545       .  S
C48          H55   1.086       .  S
C48          C49   1.364       .  D
C49          C50   1.545       .  S
C49        C1137   1.481       .  S
C50          C54   1.545       .  S
C50          C52   1.539   1_565  S
C50          H56   1.110       .  S
C51          H57   1.086       .  S
C51          C52   1.363       .  D
C52        C1105   1.483       .  S
C53          H58   1.081       .  S
C53          C54   1.370       .  D
C54        C1041   1.500       .  S
C59          C60   1.534       .  S
C59          C65   1.538       .  S
C59          C63   1.551       .  S
C59         C986   1.549       .  S
C60          H67   1.087       .  S
C60          C61   1.363       .  D
C61          C62   1.546   1_455  S
C61         C913   1.484       .  S
C62          C66   1.538       .  S
C62          C64   1.542   1_655  S
C62          H68   1.110       .  S
C63          H69   1.079       .  S
C63          C64   1.372       .  D
C64         C954   1.498       .  S
C65          H70   1.086       .  S
C65          C66   1.366   1_455  D
C66        C1018   1.489       .  S
N71          C76   1.355   1_554  A
N71          C75   1.352       .  A
N71         H103   1.038       .  S
N72          C79   1.351   1_545  A
N72          C80   1.352       .  A
N73          C78   1.352   1_554  A
N73          C77   1.355       .  A
N73         H104   1.037       .  S
N74          C81   1.352   1_545  A
N74          C82   1.350       .  A
C75          C83   1.387       .  A
C75          C91   1.415       .  A
C76          C92   1.418       .  A
C76          C84   1.387       .  A
C77          C85   1.387       .  A
C77          C94   1.417       .  A
C78          C93   1.416       .  A
C78          C86   1.387       .  A
C79          C91   1.413       .  A
C79          C87   1.386       .  A
C80          C94   1.414       .  A
C80          C88   1.386       .  A
C81          C89   1.386       .  A
C81          C92   1.414       .  A
C82          C90   1.387       .  A
C82          C93   1.413       .  A
C83          C84   1.377   1_554  A
C83          H95   1.082       .  S
C84          H96   1.082       .  S
C85          C86   1.377   1_554  A
C85          H97   1.082       .  S
C86          H98   1.082       .  S
C87          C88   1.371   1_565  A
C87          H99   1.082       .  S
C88         H100   1.082       .  S
C89          C90   1.372   1_565  A
C89         H101   1.082       .  S
C90         H102   1.082       .  S
C91         C826   1.485       .  S
C92         C881   1.495       .  S
C93         C858   1.486       .  S
C94         C785   1.495       .  S
C105        N123   1.350       .  A
C105        C142   1.456       .  S
C105       C1274   1.474       .  S
N106        N123   1.326       .  A
N106        N128   1.320       .  A
N106       Co143   2.089       .  S
C107        N132   1.337       .  A
C107        H152   1.081       .  S
C107        C145   1.462       .  S
H108        C149   1.082       .  S
C109        N133   1.343       .  A
C109        H138   1.081       .  S
C109        C113   1.466       .  S
Co110       N128   2.084       .  S
Co110       N118   2.094       .  S
Co110       N150   2.090       .  S
Co110       N126   2.088       .  S
Co110      Cl154   2.454       .  S
N111        C149   1.340       .  A
N111        N118   1.321       .  A
N111       Co112   2.085       .  S
Co112       N115   2.086       .  S
Co112       N132   2.078       .  S
Co112       N119   2.090       .  S
Co112      Cl154   2.455       .  S
C113        N151   1.351       .  A
C113       C1233   1.494       .  S
N114        N121   1.321       .  A
N114        N144   1.323       .  A
N114       Co147   2.084       .  S
N115        N133   1.319       .  A
N115        N151   1.325       .  A
N116        C145   1.354       .  A
N116        N126   1.325       .  A
H117        C142   1.081       .  S
N118        N139   1.327       .  A
N119        N137   1.320       .  A
N119        N124   1.325       .  A
C120        N124   1.351       .  A
C120        C148   1.462       .  S
C120        C977   1.481       .  S
N121        C136   1.340       .  A
N121       Co143   2.083       .  S
C122        N150   1.341       .  A
C122        H156   1.082       .  S
C122        C125   1.461       .  S
C125        N146   1.353       .  A
C125       C1009   1.484       .  S
N126        N132   1.318       .  A
N127        C153   1.343       .  A
N127        N129   1.320       .  A
N127       Co143   2.090       .  S
N128        C142   1.341       .  A
N129        N157   1.323       .  A
N129       Co147   2.082       .  S
H130        C153   1.082       .  S
H131        C148   1.081       .  S
N133       Co147   2.092       .  S
N134        N146   1.327       .  A
N134        N150   1.321       .  A
N134       Co143   2.096       .  S
C135        N139   1.352       .  A
C135        C149   1.459       .  S
C135        C890   1.480       .  S
C136        H140   1.082       .  S
C136        C155   1.458       .  S
N137        C148   1.342       .  A
N137       Co147   2.090       .  S
C141        N157   1.349       .  A
C141        C153   1.465       .  S
C141       C1114   1.484       .  S
Co143      Cl154   2.456       .  S
N144        C155   1.349       .  A
C145       C1146   1.485       .  S
Co147      Cl154   2.449       .  S
C155        C849   1.477       .  S
C158        N176   1.350       .  A
C158        C195   1.460       .  S
C158        C753   1.475       .  S
N159        N176   1.324       .  A
N159        N181   1.319       .  A
N159       Co196   2.084       .  S
C160        N185   1.341       .  A
C160        H205   1.082       .  S
C160        C198   1.458       .  S
H161        C202   1.082       .  S
C162        N186   1.343       .  A
C162        H191   1.081       .  S
C162        C166   1.470       .  S
Co163       N181   2.082       .  S
Co163       N171   2.086       .  S
Co163       N203   2.083       .  S
Co163       N179   2.082       .  S
Co163      Cl207   2.455       .  S
N164        C202   1.342       .  A
N164        N171   1.319       .  A
N164       Co165   2.085       .  S
Co165       N168   2.077       .  S
Co165       N185   2.082       .  S
Co165       N172   2.080       .  S
Co165      Cl207   2.446       .  S
C166        N204   1.349       .  A
C166        C730   1.491       .  S
N167        N174   1.317       .  A
N167        N197   1.324       .  A
N167       Co200   2.087       .  S
N168        N186   1.319       .  A
N168        N204   1.322       .  A
N169        C198   1.348       .  A
N169        N179   1.324       .  A
H170        C195   1.082       .  S
N171        N192   1.324       .  A
N172        N190   1.321       .  A
N172        N177   1.323       .  A
C173        N177   1.348       .  A
C173        C201   1.458       .  S
C173       C1178   1.472       .  S
N174        C189   1.338       .  A
N174       Co196   2.080       .  S
C175        N203   1.340       .  A
C175        H209   1.081       .  S
C175        C178   1.459       .  S
C178        N199   1.348       .  A
C178       C1210   1.471       .  S
N179        N185   1.320       .  A
N180        C206   1.339       .  A
N180        N182   1.319       .  A
N180       Co196   2.081       .  S
N181        C195   1.341       .  A
N182        N210   1.327       .  A
N182       Co200   2.095       .  S
H183        C206   1.082       .  S
H184        C201   1.082       .  S
N186       Co200   2.094       .  S
N187        N199   1.324       .  A
N187        N203   1.320       .  A
N187       Co196   2.083       .  S
C188        N192   1.350       .  A
C188        C202   1.462       .  S
C188       C1393   1.484       .  S
C189        H193   1.077       .  S
C189        C208   1.468       .  S
N190        C201   1.341       .  A
N190       Co200   2.084       .  S
C194        N210   1.353       .  A
C194        C206   1.459       .  S
C194        C794   1.482       .  S
Co196      Cl207   2.443       .  S
N197        C208   1.355       .  A
C198        C817   1.472       .  S
Co200      Cl207   2.457       .  S
C208       C1370   1.494       .  S
C211        N229   1.355   1_545  A
C211        C248   1.469       .  S
C211       C1082   1.496   1_545  S
N212        N229   1.326       .  A
N212        N234   1.319   1_565  A
N212       Co249   2.093       .  S
C213        N238   1.342       .  A
C213        H258   1.082       .  S
C213        C251   1.460       .  S
H214        C255   1.082       .  S
C215        N239   1.342       .  A
C215        H244   1.081       .  S
C215        C219   1.463       .  S
Co216       N234   2.089       .  S
Co216       N224   2.094   1_455  S
Co216       N256   2.093       .  S
Co216       N232   2.090       .  S
Co216      Cl260   2.457   1_445  S
N217        C255   1.343       .  A
N217        N224   1.320       .  A
N217       Co218   2.088       .  S
Co218       N221   2.093       .  S
Co218       N238   2.091       .  S
Co218       N225   2.082       .  S
Co218      Cl260   2.453   1_545  S
C219        N257   1.352   1_565  A
C219       C1050   1.485       .  S
N220        N227   1.319   1_655  A
N220        N250   1.326       .  A
N220       Co253   2.090       .  S
N221        N239   1.321   1_545  A
N221        N257   1.327       .  A
N222        C251   1.350   1_455  A
N222        N232   1.326       .  A
H223        C248   1.077       .  S
N224        N245   1.325   1_655  A
N225        N243   1.319   1_545  A
N225        N230   1.323       .  A
C226        N230   1.349   1_565  A
C226        C254   1.461       .  S
C226        C634   1.482       .  S
N227        C242   1.340       .  A
N227       Co249   2.086       .  S
C228        N256   1.343       .  A
C228        H262   1.081       .  S
C228        C231   1.463       .  S
C231        N252   1.350   1_545  A
C231        C593   1.485       .  S
N232        N238   1.321   1_455  A
N233        C259   1.341       .  A
N233        N235   1.320   1_455  A
N233       Co249   2.090       .  S
N234        C248   1.340       .  A
N235        N263   1.328       .  A
N235       Co253   2.097       .  S
H236        C259   1.081       .  S
H237        C254   1.082       .  S
N239       Co253   2.094       .  S
N240        N252   1.325       .  A
N240        N256   1.320   1_565  A
N240       Co249   2.088       .  S
C241        N245   1.353   1_655  A
C241        C255   1.464       .  S
C241        C922   1.489       .  S
C242        H246   1.081       .  S
C242        C261   1.464   1_455  S
N243        C254   1.342       .  A
N243       Co253   2.084       .  S
C247        N263   1.353       .  A
C247        C259   1.460   1_655  S
C247        C689   1.485       .  S
Co249      Cl260   2.454   1_455  S
N250        C261   1.352       .  A
C251        C657   1.479       .  S
Co253      Cl260   2.456       .  S
C261        C945   1.487       .  S
C264        N282   1.354       .  A
C264        C301   1.464   1_655  S
C264        C433   1.485       .  S
N265        N282   1.323       .  A
N265        N287   1.317   1_655  A
N265       Co302   2.086       .  S
C266        N291   1.341       .  A
C266        H311   1.081       .  S
C266        C304   1.458       .  S
H267        C308   1.081       .  S
C268        N292   1.343       .  A
C268        H297   1.081       .  S
C268        C272   1.465       .  S
Co269       N287   2.071       .  S
Co269       N277   2.084       .  S
Co269       N309   2.088       .  S
Co269       N285   2.074       .  S
Co269      Cl313   2.454   1_445  S
N270        C308   1.339       .  A
N270        N277   1.319   1_565  A
N270       Co271   2.079       .  S
Co271       N274   2.087       .  S
Co271       N291   2.088       .  S
Co271       N278   2.077       .  S
Co271      Cl313   2.453   1_455  S
C272        N310   1.352   1_655  A
C272        C401   1.486       .  S
N273        N280   1.318   1_565  A
N273        N303   1.324       .  A
N273       Co306   2.086       .  S
N274        N292   1.320   1_455  A
N274        N310   1.326       .  A
N275        C304   1.347   1_545  A
N275        N285   1.323       .  A
H276        C301   1.077       .  S
N277        N298   1.324       .  A
N278        N296   1.320   1_455  A
N278        N283   1.324       .  A
C279        N283   1.348   1_655  A
C279        C307   1.457       .  S
C279        C497   1.472       .  S
N280        C295   1.340       .  A
N280       Co302   2.082       .  S
C281        N309   1.342       .  A
C281        H315   1.081       .  S
C281        C284   1.461   1_455  S
C284        N305   1.349       .  A
C284        C465   1.480       .  S
N285        N291   1.321   1_545  A
N286        C312   1.341       .  A
N286        N288   1.321   1_545  A
N286       Co302   2.085       .  S
N287        C301   1.336       .  A
N288        N316   1.326       .  A
N288       Co306   2.093       .  S
H289        C312   1.081       .  S
H290        C307   1.081       .  S
N292       Co306   2.097       .  S
N293        N305   1.325       .  A
N293        N309   1.320   1_655  A
N293       Co302   2.088       .  S
C294        N298   1.350   1_565  A
C294        C308   1.458       .  S
C294       C1338   1.468       .  S
C295        H299   1.081       .  S
C295        C314   1.466   1_545  S
N296        C307   1.340       .  A
N296       Co306   2.083       .  S
C300        N316   1.351       .  A
C300        C312   1.459   1_565  S
C300        C570   1.480       .  S
Co302      Cl313   2.449   1_545  S
N303        C314   1.352       .  A
C304        C529   1.469       .  S
Co306      Cl313   2.449       .  S
C314       C1306   1.493       .  S
N317        C322   1.352       .  A
N317        C321   1.353       .  A
N317        H349   1.039   1_655  S
N318        C325   1.353   1_655  A
N318        C326   1.351       .  A
N319        C324   1.354       .  A
N319        C323   1.353       .  A
N319        H350   1.039   1_655  S
N320        C327   1.351       .  A
N320        C328   1.352       .  A
C321        C329   1.387       .  A
C321        C337   1.415       .  A
C322        C338   1.415       .  A
C322        C330   1.387       .  A
C323        C331   1.388       .  A
C323        C340   1.417       .  A
C324        C339   1.414       .  A
C324        C332   1.386       .  A
C325        C337   1.415   1_455  A
C325        C333   1.385       .  A
C326        C340   1.416       .  A
C326        C334   1.387   1_655  A
C327        C335   1.387   1_655  A
C327        C338   1.413       .  A
C328        C336   1.386   1_655  A
C328        C339   1.413       .  A
C329        C330   1.377       .  A
C329        H341   1.082       .  S
C330        H342   1.082       .  S
C331        C332   1.378       .  A
C331        H343   1.082       .  S
C332        H344   1.083       .  S
C333        C334   1.376       .  A
C333        H345   1.082       .  S
C334        H346   1.082       .  S
C335        C336   1.373       .  A
C335        H347   1.082       .  S
C336        H348   1.082       .  S
C337        C698   1.495       .  S
C338        C506   1.489       .  S
C339        C474   1.491       .  S
C340        C666   1.492       .  S
N351        C356   1.350       .  A
N351        C355   1.353       .  A
N351        H383   1.042   1_565  S
N352        C359   1.353   1_565  A
N352        C360   1.351   1_565  A
N353        C358   1.354       .  A
N353        C357   1.352       .  A
N353        H384   1.041   1_565  S
N354        C361   1.350       .  A
N354        C362   1.352       .  A
C355        C363   1.386       .  A
C355        C371   1.415       .  A
C356        C372   1.413       .  A
C356        C364   1.387       .  A
C357        C365   1.388       .  A
C357        C374   1.417       .  A
C358        C373   1.415       .  A
C358        C366   1.386       .  A
C359        C371   1.414   1_545  A
C359        C367   1.385       .  A
C360        C374   1.414   1_545  A
C360        C368   1.387       .  A
C361        C369   1.387   1_565  A
C361        C372   1.413       .  A
C362        C370   1.386   1_565  A
C362        C373   1.413       .  A
C363        C364   1.376       .  A
C363        H375   1.082       .  S
C364        H376   1.082       .  S
C365        C366   1.377       .  A
C365        H377   1.082       .  S
C366        H378   1.082       .  S
C367        C368   1.375       .  A
C367        H379   1.082       .  S
C368        H380   1.082       .  S
C369        C370   1.374       .  A
C369        H381   1.082       .  S
C370        H382   1.082       .  S
C371        C602   1.496   1_565  S
C372        C538   1.483       .  S
C373        C561   1.493       .  S
C374        C625   1.489       .  S
C385        C386   1.533       .  S
C385        C391   1.546       .  S
C385        C389   1.530   1_655  S
C385        C442   1.537   1_655  S
C386        H393   1.086       .  S
C386        C387   1.363       .  D
C387        C388   1.545       .  S
C387        C762   1.482       .  S
C388        C392   1.541       .  S
C388        C390   1.546   1_655  S
C388        H394   1.107       .  S
C389        H395   1.087       .  S
C389        C390   1.366       .  D
C390        C721   1.489       .  S
C391        H396   1.081       .  S
C391        C392   1.365       .  D
C392        C410   1.490       .  S
C397        C398   1.399       .  A
C397        C402   1.405       .  A
C397        H407   1.084       .  S
C398        C399   1.412   1_655  A
C398        C403   1.484       .  S
C399        C404   1.506       .  S
C399        C400   1.407       .  A
C400        C401   1.406   1_455  A
C400        H405   1.084       .  S
C401        C402   1.416       .  A
C402        C406   1.503       .  S
C403        C408   1.410       .  A
C403        C412   1.402   1_655  A
C404        H420   1.110       .  S
C404        H421   1.110       .  S
C404        H422   1.111       .  S
C406        H417   1.105       .  S
C406        H418   1.111       .  S
C406        H419   1.110       .  S
C408        C413   1.506       .  S
C408        C409   1.403       .  A
C409        C410   1.406       .  A
C409        H414   1.084       .  S
C410        C411   1.416   1_655  A
C411        C415   1.505       .  S
C411        C412   1.408       .  A
C412        H416   1.084       .  S
C413        H423   1.111       .  S
C413        H424   1.110       .  S
C413        H425   1.110       .  S
C415        H426   1.108       .  S
C415        H427   1.109       .  S
C415        H428   1.111       .  S
C429        C430   1.397   1_455  A
C429        C434   1.401       .  A
C429        H439   1.085       .  S
C430        C431   1.407       .  A
C430        C435   1.474       .  S
C431        C436   1.508       .  S
C431        C432   1.401       .  A
C432        C433   1.408       .  A
C432        H437   1.083       .  S
C433        C434   1.421   1_655  A
C434        C438   1.506       .  S
C435        C440   1.406   1_655  A
C435        C444   1.395       .  A
C436        H452   1.110       .  S
C436        H453   1.108       .  S
C436        H454   1.111       .  S
C438        H449   1.107       .  S
C438        H450   1.111       .  S
C438        H451   1.110       .  S
C440        C445   1.510       .  S
C440        C441   1.399       .  A
C441        C442   1.413       .  A
C441        H446   1.076       .  S
C442        C443   1.430   1_455  A
C443        C447   1.509       .  S
C443        C444   1.402       .  A
C444        H448   1.085       .  S
C445        H455   1.111       .  S
C445        H456   1.110       .  S
C445        H457   1.108   1_455  S
C447        H458   1.100   1_655  S
C447        H459   1.111   1_655  S
C447        H460   1.110       .  S
C461        C462   1.402   1_455  A
C461        C466   1.406       .  A
C461        H471   1.084       .  S
C462        C463   1.411       .  A
C462        C467   1.485       .  S
C463        C468   1.506       .  S
C463        C464   1.405       .  A
C464        C465   1.403       .  A
C464        H469   1.084       .  S
C465        C466   1.415   1_655  A
C466        C470   1.507       .  S
C467        C472   1.411   1_655  A
C467        C476   1.403       .  A
C468        H484   1.110       .  S
C468        H485   1.110       .  S
C468        H486   1.111       .  S
C470        H481   1.108       .  S
C470        H482   1.111       .  S
C470        H483   1.111       .  S
C472        C477   1.506       .  S
C472        C473   1.404       .  A
C473        C474   1.403   1_455  A
C473        H478   1.084       .  S
C474        C475   1.416       .  A
C475        C479   1.507       .  S
C475        C476   1.405       .  A
C476        H480   1.084       .  S
C477        H487   1.111       .  S
C477        H488   1.110       .  S
C477        H489   1.110       .  S
C479        H490   1.110       .  S
C479        H491   1.108       .  S
C479        H492   1.110       .  S
C493        C494   1.401   1_455  A
C493        C498   1.404       .  A
C493        H503   1.084       .  S
C494        C495   1.410       .  A
C494        C499   1.477       .  S
C495        C500   1.506       .  S
C495        C496   1.402       .  A
C496        C497   1.402       .  A
C496        H501   1.084       .  S
C497        C498   1.414   1_655  A
C498        C502   1.507       .  S
C499        C504   1.410       .  A
C499        C508   1.400   1_655  A
C500        H516   1.110       .  S
C500        H517   1.110       .  S
C500        H518   1.111       .  S
C502        H513   1.111       .  S
C502        H514   1.111       .  S
C502        H515   1.109       .  S
C504        C509   1.506       .  S
C504        C505   1.403       .  A
C505        C506   1.405       .  A
C505        H510   1.084       .  S
C506        C507   1.417   1_655  A
C507        C511   1.508       .  S
C507        C508   1.402       .  A
C508        H512   1.085       .  S
C509        H519   1.111       .  S
C509        H520   1.110       .  S
C509        H521   1.110       .  S
C511        H522   1.110       .  S
C511        H523   1.107       .  S
C511        H524   1.110       .  S
C525        C526   1.400       .  A
C525        C530   1.401       .  A
C525        H535   1.085       .  S
C526        C527   1.410   1_565  A
C526        C531   1.475       .  S
C527        C532   1.507       .  S
C527        C528   1.402       .  A
C528        C529   1.403   1_545  A
C528        H533   1.084       .  S
C529        C530   1.414       .  A
C530        C534   1.508       .  S
C531        C536   1.410   1_565  A
C531        C540   1.400       .  A
C532        H548   1.110       .  S
C532        H549   1.109       .  S
C532        H550   1.111       .  S
C534        H545   1.111       .  S
C534        H546   1.110       .  S
C534        H547   1.107       .  S
C536        C541   1.507       .  S
C536        C537   1.402       .  A
C537        C538   1.403   1_545  A
C537        H542   1.084       .  S
C538        C539   1.414       .  A
C539        C543   1.507       .  S
C539        C540   1.400       .  A
C540        H544   1.085       .  S
C541        H551   1.111       .  S
C541        H552   1.110       .  S
C541        H553   1.109       .  S
C543        H554   1.110       .  S
C543        H555   1.108       .  S
C543        H556   1.110       .  S
C557        C558   1.402       .  A
C557        C562   1.405       .  A
C557        H567   1.084       .  S
C558        C559   1.412   1_565  A
C558        C563   1.486       .  S
C559        C564   1.506       .  S
C559        C560   1.406       .  A
C560        C561   1.404   1_545  A
C560        H565   1.084       .  S
C561        C562   1.416       .  A
C562        C566   1.507       .  S
C563        C568   1.412       .  A
C563        C572   1.402   1_565  A
C564        H580   1.110       .  S
C564        H581   1.110       .  S
C564        H582   1.111       .  S
C566        H577   1.110       .  S
C566        H578   1.110       .  S
C566        H579   1.108       .  S
C568        C573   1.506       .  S
C568        C569   1.406       .  A
C569        C570   1.402       .  A
C569        H574   1.084       .  S
C570        C571   1.415   1_565  A
C571        C575   1.507       .  S
C571        C572   1.407       .  A
C572        H576   1.084       .  S
C573        H583   1.111       .  S
C573        H584   1.110       .  S
C573        H585   1.110       .  S
C575        H586   1.111       .  S
C575        H587   1.111       .  S
C575        H588   1.108       .  S
C589        C590   1.401   1_565  A
C589        C594   1.406       .  A
C589        H599   1.084       .  S
C590        C591   1.412       .  A
C590        C595   1.488       .  S
C591        C596   1.507       .  S
C591        C592   1.406       .  A
C592        C593   1.405       .  A
C592        H597   1.084       .  S
C593        C594   1.419   1_545  A
C594        C598   1.509       .  S
C595        C600   1.412   1_545  A
C595        C604   1.402       .  A
C596        H612   1.110       .  S
C596        H613   1.111       .  S
C596        H614   1.111       .  S
C598        H609   1.110       .  S
C598        H610   1.111       .  S
C598        H611   1.106       .  S
C600        C605   1.506       .  S
C600        C601   1.406       .  A
C601        C602   1.406   1_565  A
C601        H606   1.084       .  S
C602        C603   1.418       .  A
C603        C607   1.508       .  S
C603        C604   1.404       .  A
C604        H608   1.084       .  S
C605        H615   1.111       .  S
C605        H616   1.110       .  S
C605        H617   1.110       .  S
C607        H618   1.110       .  S
C607        H619   1.107       .  S
C607        H620   1.110       .  S
C621        C622   1.401   1_545  A
C621        C626   1.402       .  A
C621        H631   1.085       .  S
C622        C623   1.412       .  A
C622        C627   1.479       .  S
C623        C628   1.508       .  S
C623        C624   1.403       .  A
C624        C625   1.404       .  A
C624        H629   1.084       .  S
C625        C626   1.416   1_565  A
C626        C630   1.508       .  S
C627        C632   1.411       .  A
C627        C636   1.399   1_565  A
C628        H644   1.110       .  S
C628        H645   1.108       .  S
C628        H646   1.111       .  S
C630        H641   1.110       .  S
C630        H642   1.110       .  S
C630        H643   1.108       .  S
C632        C637   1.507       .  S
C632        C633   1.404       .  A
C633        C634   1.405       .  A
C633        H638   1.084       .  S
C634        C635   1.418   1_565  A
C635        C639   1.508       .  S
C635        C636   1.402       .  A
C636        H640   1.084       .  S
C637        H647   1.111       .  S
C637        H648   1.110       .  S
C637        H649   1.108       .  S
C639        H650   1.110       .  S
C639        H651   1.110       .  S
C639        H652   1.111       .  S
C653        C654   1.401       .  A
C653        C658   1.404       .  A
C653        H663   1.085       .  S
C654        C655   1.411   1_655  A
C654        C659   1.484       .  S
C655        C660   1.506       .  S
C655        C656   1.406       .  A
C656        C657   1.405   1_455  A
C656        H661   1.084       .  S
C657        C658   1.417       .  A
C658        C662   1.508       .  S
C659        C664   1.411   1_655  A
C659        C668   1.401       .  A
C660        H676   1.110       .  S
C660        H677   1.110       .  S
C660        H678   1.111       .  S
C662        H673   1.111       .  S
C662        H674   1.110       .  S
C662        H675   1.107       .  S
C664        C669   1.506       .  S
C664        C665   1.405       .  A
C665        C666   1.404   1_455  A
C665        H670   1.084       .  S
C666        C667   1.417       .  A
C667        C671   1.507       .  S
C667        C668   1.404       .  A
C668        H672   1.084       .  S
C669        H679   1.111       .  S
C669        H680   1.110       .  S
C669        H681   1.110       .  S
C671        H682   1.110       .  S
C671        H683   1.108       .  S
C671        H684   1.110       .  S
C685        C686   1.403       .  A
C685        C690   1.407       .  A
C685        H695   1.084       .  S
C686        C687   1.411   1_655  A
C686        C691   1.489       .  S
C687        C692   1.506       .  S
C687        C688   1.406       .  A
C688        C689   1.405   1_455  A
C688        H693   1.084       .  S
C689        C690   1.418       .  A
C690        C694   1.508       .  S
C691        C696   1.412       .  A
C691        C700   1.403   1_655  A
C692        H708   1.110       .  S
C692        H709   1.110       .  S
C692        H710   1.111       .  S
C694        H705   1.110       .  S
C694        H706   1.111       .  S
C694        H707   1.107       .  S
C696        C701   1.506       .  S
C696        C697   1.405       .  A
C697        C698   1.404       .  A
C697        H702   1.084       .  S
C698        C699   1.418   1_655  A
C699        C703   1.508       .  S
C699        C700   1.407       .  A
C700        H704   1.084       .  S
C701        H711   1.111       .  S
C701        H712   1.110       .  S
C701        H713   1.110       .  S
C703        H714   1.110       .  S
C703        H715   1.108       .  S
C703        H716   1.110       .  S
C717        C718   1.402       .  A
C717        C722   1.407       .  A
C717        H727   1.084       .  S
C718        C719   1.408       .  A
C718        C723   1.481       .  S
C719        C724   1.507       .  S
C719        C720   1.400       .  A
C720        C721   1.407       .  A
C720        H725   1.084       .  S
C721        C722   1.416       .  A
C722        C726   1.505       .  S
C723        C728   1.409       .  A
C723        C732   1.398       .  A
C724        H740   1.110       .  S
C724        H741   1.110       .  S
C724        H742   1.111       .  S
C726        H737   1.111       .  S
C726        H738   1.107       .  S
C726        H739   1.106       .  S
C728        C733   1.507       .  S
C728        C729   1.403       .  A
C729        C730   1.407       .  A
C729        H734   1.082       .  S
C730        C731   1.423       .  A
C731        C735   1.509       .  S
C731        C732   1.405       .  A
C732        H736   1.084       .  S
C733        H743   1.111       .  S
C733        H744   1.110       .  S
C733        H745   1.110       .  S
C735        H746   1.109       .  S
C735        H747   1.111       .  S
C735        H748   1.111       .  S
C749        C750   1.402       .  A
C749        C754   1.404       .  A
C749        H759   1.084       .  S
C750        C751   1.411       .  A
C750        C755   1.481       .  S
C751        C756   1.507       .  S
C751        C752   1.403       .  A
C752        C753   1.404       .  A
C752        H757   1.084       .  S
C753        C754   1.416       .  A
C754        C758   1.509       .  S
C755        C760   1.411       .  A
C755        C764   1.399       .  A
C756        H772   1.110       .  S
C756        H773   1.109       .  S
C756        H774   1.111       .  S
C758        H769   1.111       .  S
C758        H770   1.110       .  S
C758        H771   1.108       .  S
C760        C765   1.506       .  S
C760        C761   1.406       .  A
C761        C762   1.403       .  A
C761        H766   1.084       .  S
C762        C763   1.418       .  A
C763        C767   1.506       .  S
C763        C764   1.400       .  A
C764        H768   1.085       .  S
C765        H775   1.111       .  S
C765        H776   1.110       .  S
C765        H777   1.108       .  S
C767        H778   1.110       .  S
C767        H779   1.104       .  S
C767        H780   1.110       .  S
C781        C782   1.402       .  A
C781        C786   1.405       .  A
C781        H791   1.084       .  S
C782        C783   1.411       .  A
C782        C787   1.483       .  S
C783        C788   1.507       .  S
C783        C784   1.404       .  A
C784        C785   1.404       .  A
C784        H789   1.084       .  S
C785        C786   1.418       .  A
C786        C790   1.508       .  S
C787        C792   1.411       .  A
C787        C796   1.400       .  A
C788        H804   1.110       .  S
C788        H805   1.109       .  S
C788        H806   1.111       .  S
C790        H801   1.110       .  S
C790        H802   1.110       .  S
C790        H803   1.108       .  S
C792        C797   1.507       .  S
C792        C793   1.407       .  A
C793        C794   1.406       .  A
C793        H798   1.084       .  S
C794        C795   1.419       .  A
C795        C799   1.509       .  S
C795        C796   1.403       .  A
C796        H800   1.085       .  S
C797        H807   1.111       .  S
C797        H808   1.110       .  S
C797        H809   1.109       .  S
C799        H810   1.110       .  S
C799        H811   1.106       .  S
C799        H812   1.111       .  S
C813        C814   1.401       .  A
C813        C818   1.403       .  A
C813        H823   1.085       .  S
C814        C815   1.410       .  A
C814        C819   1.479       .  S
C815        C820   1.506       .  S
C815        C816   1.403       .  A
C816        C817   1.402       .  A
C816        H821   1.084       .  S
C817        C818   1.416       .  A
C818        C822   1.508       .  S
C819        C824   1.410       .  A
C819        C828   1.401       .  A
C820        H836   1.110       .  S
C820        H837   1.110       .  S
C820        H838   1.111       .  S
C822        H833   1.110       .  S
C822        H834   1.111       .  S
C822        H835   1.106       .  S
C824        C829   1.506       .  S
C824        C825   1.403       .  A
C825        C826   1.403       .  A
C825        H830   1.084       .  S
C826        C827   1.415       .  A
C827        C831   1.507       .  S
C827        C828   1.401       .  A
C828        H832   1.085       .  S
C829        H839   1.111       .  S
C829        H840   1.110       .  S
C829        H841   1.110       .  S
C831        H842   1.110       .  S
C831        H843   1.108       .  S
C831        H844   1.110       .  S
C845        C846   1.401       .  A
C845        C850   1.403       .  A
C845        H855   1.084       .  S
C846        C847   1.411       .  A
C846        C851   1.480       .  S
C847        C852   1.507       .  S
C847        C848   1.402       .  A
C848        C849   1.403       .  A
C848        H853   1.084       .  S
C849        C850   1.416       .  A
C850        C854   1.508       .  S
C851        C856   1.412       .  A
C851        C860   1.401       .  A
C852        H868   1.109       .  S
C852        H869   1.110       .  S
C852        H870   1.111       .  S
C854        H865   1.109       .  S
C854        H866   1.111       .  S
C854        H867   1.111       .  S
C856        C861   1.507       .  S
C856        C857   1.402       .  A
C857        C858   1.402       .  A
C857        H862   1.084       .  S
C858        C859   1.415       .  A
C859        C863   1.508       .  S
C859        C860   1.401       .  A
C860        H864   1.084       .  S
C861        H871   1.111       .  S
C861        H872   1.109       .  S
C861        H873   1.110       .  S
C863        H874   1.110       .  S
C863        H875   1.108       .  S
C863        H876   1.110       .  S
C877        C878   1.401       .  A
C877        C882   1.404       .  A
C877        H887   1.084       .  S
C878        C879   1.412       .  A
C878        C883   1.484       .  S
C879        C884   1.507       .  S
C879        C880   1.405       .  A
C880        C881   1.405       .  A
C880        H885   1.084       .  S
C881        C882   1.418       .  A
C882        C886   1.508       .  S
C883        C888   1.411       .  A
C883        C892   1.402       .  A
C884        H900   1.110       .  S
C884        H901   1.108       .  S
C884        H902   1.111       .  S
C886        H897   1.110       .  S
C886        H898   1.110       .  S
C886        H899   1.107       .  S
C888        C893   1.508       .  S
C888        C889   1.404       .  A
C889        C890   1.405       .  A
C889        H894   1.084       .  S
C890        C891   1.418       .  A
C891        C895   1.509       .  S
C891        C892   1.406       .  A
C892        H896   1.085       .  S
C893        H903   1.111       .  S
C893        H904   1.110       .  S
C893        H905   1.108       .  S
C895        H906   1.111       .  S
C895        H907   1.106       .  S
C895        H908   1.110       .  S
C909        C910   1.401   1_455  A
C909        C914   1.403       .  A
C909        H919   1.085       .  S
C910        C911   1.413       .  A
C910        C915   1.487       .  S
C911        C916   1.507       .  S
C911        C912   1.408       .  A
C912        C913   1.404   1_655  A
C912        H917   1.084       .  S
C913        C914   1.416       .  A
C914        C918   1.508       .  S
C915        C920   1.412       .  A
C915        C924   1.400   1_655  A
C916        H932   1.110       .  S
C916        H933   1.108       .  S
C916        H934   1.111       .  S
C918        H929   1.110       .  S
C918        H930   1.110       .  S
C918        H931   1.108       .  S
C920        C925   1.507       .  S
C920        C921   1.409       .  A
C921        C922   1.408       .  A
C921        H926   1.083       .  S
C922        C923   1.418   1_655  A
C923        C927   1.506       .  S
C923        C924   1.404       .  A
C924        H928   1.085       .  S
C925        H935   1.111       .  S
C925        H936   1.110       .  S
C925        H937   1.108       .  S
C927        H938   1.110       .  S
C927        H939   1.105       .  S
C927        H940   1.111       .  S
C941        C942   1.402       .  A
C941        C946   1.408       .  A
C941        H951   1.084       .  S
C942        C943   1.411   1_655  A
C942        C947   1.485       .  S
C943        C948   1.507       .  S
C943        C944   1.403       .  A
C944        C945   1.406   1_455  A
C944        H949   1.083       .  S
C945        C946   1.418       .  A
C946        C950   1.507       .  S
C947        C952   1.408   1_655  A
C947        C956   1.401       .  A
C948        H964   1.110       .  S
C948        H965   1.110       .  S
C948        H966   1.111       .  S
C950        H961   1.111       .  S
C950        H962   1.109       .  S
C950        H963   1.111       .  S
C952        C957   1.506       .  S
C952        C953   1.403       .  A
C953        C954   1.409       .  A
C953        H958   1.084       .  S
C954        C955   1.421   1_455  A
C955        C959   1.504       .  S
C955        C956   1.406       .  A
C956        H960   1.085       .  S
C957        H967   1.111       .  S
C957        H968   1.110   1_455  S
C957        H969   1.110       .  S
C959        H970   1.110       .  S
C959        H971   1.098       .  S
C959        H972   1.110       .  S
C973        C974   1.401       .  A
C973        C978   1.405       .  A
C973        H983   1.084       .  S
C974        C975   1.411       .  A
C974        C979   1.486       .  S
C975        C980   1.506       .  S
C975        C976   1.405       .  A
C976        C977   1.404       .  A
C976        H981   1.084       .  S
C977        C978   1.417       .  A
C978        C982   1.506       .  S
C979        C984   1.405       .  A
C979        C988   1.396       .  A
C980        H996   1.110       .  S
C980        H997   1.110       .  S
C980        H998   1.111       .  S
C982        H993   1.111       .  S
C982        H994   1.110       .  S
C982        H995   1.107       .  S
C984        C989   1.508       .  S
C984        C985   1.406       .  A
C985        C986   1.417       .  A
C985        H990   1.073       .  S
C986        C987   1.433       .  A
C987        C991   1.512       .  S
C987        C988   1.407       .  A
C988        H992   1.085       .  S
C989        H999   1.111       .  S
C989       H1000   1.110       .  S
C989       H1001   1.110       .  S
C991       H1002   1.111       .  S
C991       H1003   1.101       .  S
C991       H1004   1.110       .  S
C1005      C1006   1.400       .  A
C1005      C1010   1.405       .  A
C1005      H1015   1.084       .  S
C1006      C1007   1.412       .  A
C1006      C1011   1.485       .  S
C1007      C1012   1.507       .  S
C1007      C1008   1.407       .  A
C1008      C1009   1.405       .  A
C1008      H1013   1.084       .  S
C1009      C1010   1.418       .  A
C1010      C1014   1.508       .  S
C1011      C1016   1.411       .  A
C1011      C1020   1.401       .  A
C1012      H1028   1.110       .  S
C1012      H1029   1.110       .  S
C1012      H1030   1.111       .  S
C1014      H1025   1.111       .  S
C1014      H1026   1.110       .  S
C1014      H1027   1.107       .  S
C1016      C1021   1.505       .  S
C1016      C1017   1.406       .  A
C1017      C1018   1.405       .  A
C1017      H1022   1.083       .  S
C1018      C1019   1.419       .  A
C1019      C1023   1.508       .  S
C1019      C1020   1.404       .  A
C1020      H1024   1.085       .  S
C1021      H1031   1.111       .  S
C1021      H1032   1.110       .  S
C1021      H1033   1.110       .  S
C1023      H1034   1.111       .  S
C1023      H1035   1.108       .  S
C1023      H1036   1.110       .  S
C1037      C1038   1.401       .  A
C1037      C1042   1.409       .  A
C1037      H1047   1.085       .  S
C1038      C1039   1.408   1_565  A
C1038      C1043   1.486       .  S
C1039      C1044   1.507       .  S
C1039      C1040   1.402       .  A
C1040      C1041   1.409   1_545  A
C1040      H1045   1.084       .  S
C1041      C1042   1.423       .  A
C1042      C1046   1.504       .  S
C1043      C1048   1.410   1_565  A
C1043      C1052   1.401       .  A
C1044      H1060   1.110       .  S
C1044      H1061   1.110       .  S
C1044      H1062   1.111       .  S
C1046      H1057   1.110       .  S
C1046      H1058   1.111       .  S
C1046      H1059   1.095       .  S
C1048      C1053   1.505       .  S
C1048      C1049   1.408       .  A
C1049      C1050   1.405   1_545  A
C1049      H1054   1.084       .  S
C1050      C1051   1.417       .  A
C1051      C1055   1.507       .  S
C1051      C1052   1.405       .  A
C1052      H1056   1.084       .  S
C1053      H1063   1.111       .  S
C1053      H1064   1.110       .  S
C1053      H1065   1.110       .  S
C1055      H1066   1.107       .  S
C1055      H1067   1.110       .  S
C1055      H1068   1.111       .  S
C1069      C1070   1.398       .  A
C1069      C1074   1.407       .  A
C1069      H1079   1.085       .  S
C1070      C1071   1.407   1_565  A
C1070      C1075   1.485       .  S
C1071      C1076   1.510       .  S
C1071      C1072   1.403       .  A
C1072      C1073   1.415   1_545  A
C1072      H1077   1.076       .  S
C1073      C1074   1.430       .  A
C1074      C1078   1.511       .  S
C1075      C1080   1.410       .  A
C1075      C1084   1.398   1_565  A
C1076      H1092   1.110       .  S
C1076      H1093   1.108   1_545  S
C1076      H1094   1.111       .  S
C1078      H1089   1.110       .  S
C1078      H1090   1.111   1_565  S
C1078      H1091   1.103       .  S
C1080      C1085   1.507       .  S
C1080      C1081   1.407       .  A
C1081      C1082   1.410       .  A
C1081      H1086   1.083       .  S
C1082      C1083   1.421   1_565  A
C1083      C1087   1.503       .  S
C1083      C1084   1.405       .  A
C1084      H1088   1.084       .  S
C1085      H1095   1.111       .  S
C1085      H1096   1.110       .  S
C1085      H1097   1.108       .  S
C1087      H1098   1.110       .  S
C1087      H1099   1.106       .  S
C1087      H1100   1.111       .  S
C1101      C1102   1.403       .  A
C1101      C1106   1.405       .  A
C1101      H1111   1.084       .  S
C1102      C1103   1.413       .  A
C1102      C1107   1.486       .  S
C1103      C1108   1.507       .  S
C1103      C1104   1.404       .  A
C1104      C1105   1.403       .  A
C1104      H1109   1.084       .  S
C1105      C1106   1.412       .  A
C1106      C1110   1.505       .  S
C1107      C1112   1.412       .  A
C1107      C1116   1.401       .  A
C1108      H1124   1.109       .  S
C1108      H1125   1.110       .  S
C1108      H1126   1.111       .  S
C1110      H1121   1.109       .  S
C1110      H1122   1.111       .  S
C1110      H1123   1.110       .  S
C1112      C1117   1.506       .  S
C1112      C1113   1.406       .  A
C1113      C1114   1.405       .  A
C1113      H1118   1.083       .  S
C1114      C1115   1.416       .  A
C1115      C1119   1.507       .  S
C1115      C1116   1.404       .  A
C1116      H1120   1.084       .  S
C1117      H1127   1.111       .  S
C1117      H1128   1.109       .  S
C1117      H1129   1.110       .  S
C1119      H1130   1.111       .  S
C1119      H1131   1.110       .  S
C1119      H1132   1.109       .  S
C1133      C1134   1.405       .  A
C1133      C1138   1.407       .  A
C1133      H1143   1.084       .  S
C1134      C1135   1.412       .  A
C1134      C1139   1.484       .  S
C1135      C1140   1.507       .  S
C1135      C1136   1.401       .  A
C1136      C1137   1.402       .  A
C1136      H1141   1.084       .  S
C1137      C1138   1.411       .  A
C1138      C1142   1.504       .  S
C1139      C1144   1.410       .  A
C1139      C1148   1.401       .  A
C1140      H1156   1.109       .  S
C1140      H1157   1.110       .  S
C1140      H1158   1.111       .  S
C1142      H1153   1.109       .  S
C1142      H1154   1.111       .  S
C1142      H1155   1.110       .  S
C1144      C1149   1.506       .  S
C1144      C1145   1.405       .  A
C1145      C1146   1.407       .  A
C1145      H1150   1.084       .  S
C1146      C1147   1.418       .  A
C1147      C1151   1.508       .  S
C1147      C1148   1.401       .  A
C1148      H1152   1.085       .  S
C1149      H1159   1.111       .  S
C1149      H1160   1.109       .  S
C1149      H1161   1.110       .  S
C1151      H1162   1.111       .  S
C1151      H1163   1.110       .  S
C1151      H1164   1.106       .  S
C1165      C1166   1.399       .  A
C1165      C1170   1.400       .  A
C1165      H1175   1.085       .  S
C1166      C1167   1.410       .  A
C1166      C1171   1.474       .  S
C1167      C1172   1.507       .  S
C1167      C1168   1.402       .  A
C1168      C1169   1.404       .  A
C1168      H1173   1.084       .  S
C1169      C1170   1.415       .  A
C1170      C1174   1.508       .  S
C1171      C1176   1.409       .  A
C1171      C1180   1.399       .  A
C1172      H1188   1.110       .  S
C1172      H1189   1.109       .  S
C1172      H1190   1.111       .  S
C1174      H1185   1.110       .  S
C1174      H1186   1.110       .  S
C1174      H1187   1.107       .  S
C1176      C1181   1.507       .  S
C1176      C1177   1.402       .  A
C1177      C1178   1.403       .  A
C1177      H1182   1.084       .  S
C1178      C1179   1.418       .  A
C1179      C1183   1.509       .  S
C1179      C1180   1.401       .  A
C1180      H1184   1.085       .  S
C1181      H1191   1.111       .  S
C1181      H1192   1.110       .  S
C1181      H1193   1.109       .  S
C1183      H1194   1.110       .  S
C1183      H1195   1.105       .  S
C1183      H1196   1.111       .  S
C1197      C1198   1.401       .  A
C1197      C1202   1.402       .  A
C1197      H1207   1.084       .  S
C1198      C1199   1.411       .  A
C1198      C1203   1.480       .  S
C1199      C1204   1.506       .  S
C1199      C1200   1.403       .  A
C1200      C1201   1.403       .  A
C1200      H1205   1.084       .  S
C1201      C1202   1.415       .  A
C1202      C1206   1.507       .  S
C1203      C1208   1.412       .  A
C1203      C1212   1.401       .  A
C1204      H1220   1.110       .  S
C1204      H1221   1.110       .  S
C1204      H1222   1.111       .  S
C1206      H1217   1.110       .  S
C1206      H1218   1.110       .  S
C1206      H1219   1.108       .  S
C1208      C1213   1.506       .  S
C1208      C1209   1.404       .  A
C1209      C1210   1.402       .  A
C1209      H1214   1.084       .  S
C1210      C1211   1.413       .  A
C1211      C1215   1.507       .  S
C1211      C1212   1.403       .  A
C1212      H1216   1.084       .  S
C1213      H1223   1.111       .  S
C1213      H1224   1.110       .  S
C1213      H1225   1.110       .  S
C1215      H1226   1.111       .  S
C1215      H1227   1.111       .  S
C1215      H1228   1.109       .  S
C1229      C1230   1.402       .  A
C1229      C1234   1.408       .  A
C1229      H1239   1.084       .  S
C1230      C1231   1.412       .  A
C1230      C1235   1.492       .  S
C1231      C1236   1.507       .  S
C1231      C1232   1.406       .  A
C1232      C1233   1.407       .  A
C1232      H1237   1.083       .  S
C1233      C1234   1.421       .  A
C1234      C1238   1.507       .  S
C1235      C1240   1.414       .  A
C1235      C1244   1.403       .  A
C1236      H1252   1.109       .  S
C1236      H1253   1.110       .  S
C1236      H1254   1.111       .  S
C1238      H1249   1.110       .  S
C1238      H1250   1.111       .  S
C1238      H1251   1.110       .  S
C1240      C1245   1.507       .  S
C1240      C1241   1.407       .  A
C1241      C1242   1.405       .  A
C1241      H1246   1.084       .  S
C1242      C1243   1.417       .  A
C1243      C1247   1.508       .  S
C1243      C1244   1.405       .  A
C1244      H1248   1.084       .  S
C1245      H1255   1.111       .  S
C1245      H1256   1.109       .  S
C1245      H1257   1.110       .  S
C1247      H1258   1.110       .  S
C1247      H1259   1.107       .  S
C1247      H1260   1.110       .  S
C1261      C1262   1.401       .  A
C1261      C1266   1.402       .  A
C1261      H1271   1.084       .  S
C1262      C1263   1.410       .  A
C1262      C1267   1.480       .  S
C1263      C1268   1.506       .  S
C1263      C1264   1.403       .  A
C1264      C1265   1.404       .  A
C1264      H1269   1.084       .  S
C1265      C1266   1.416       .  A
C1266      C1270   1.508       .  S
C1267      C1272   1.410       .  A
C1267      C1276   1.402       .  A
C1268      H1284   1.110       .  S
C1268      H1285   1.110       .  S
C1268      H1286   1.111       .  S
C1270      H1281   1.110       .  S
C1270      H1282   1.110       .  S
C1270      H1283   1.107       .  S
C1272      C1277   1.507       .  S
C1272      C1273   1.403       .  A
C1273      C1274   1.403       .  A
C1273      H1278   1.084       .  S
C1274      C1275   1.416       .  A
C1275      C1279   1.508       .  S
C1275      C1276   1.405       .  A
C1276      H1280   1.084       .  S
C1277      H1287   1.111       .  S
C1277      H1288   1.110       .  S
C1277      H1289   1.110       .  S
C1279      H1290   1.110       .  S
C1279      H1291   1.107       .  S
C1279      H1292   1.111       .  S
C1293      C1294   1.402       .  A
C1293      C1298   1.405       .  A
C1293      H1303   1.084       .  S
C1294      C1295   1.411       .  A
C1294      C1299   1.483       .  S
C1295      C1300   1.506       .  S
C1295      C1296   1.404       .  A
C1296      C1297   1.404       .  A
C1296      H1301   1.084       .  S
C1297      C1298   1.414       .  A
C1298      C1302   1.506   1_565  S
C1299      C1304   1.410   1_565  A
C1299      C1308   1.399       .  A
C1300      H1316   1.110       .  S
C1300      H1317   1.110   1_565  S
C1300      H1318   1.111       .  S
C1302      H1313   1.111       .  S
C1302      H1314   1.108   1_545  S
C1302      H1315   1.110       .  S
C1304      C1309   1.507       .  S
C1304      C1305   1.403       .  A
C1305      C1306   1.408   1_545  A
C1305      H1310   1.081       .  S
C1306      C1307   1.421       .  A
C1307      C1311   1.505       .  S
C1307      C1308   1.405       .  A
C1308      H1312   1.084       .  S
C1309      H1319   1.111       .  S
C1309      H1320   1.110       .  S
C1309      H1321   1.111       .  S
C1311      H1322   1.109       .  S
C1311      H1323   1.108       .  S
C1311      H1324   1.111       .  S
C1325      C1326   1.399       .  A
C1325      C1330   1.403       .  A
C1325      H1335   1.084       .  S
C1326      C1327   1.409   1_565  A
C1326      C1331   1.478       .  S
C1327      C1332   1.507       .  S
C1327      C1328   1.401       .  A
C1328      C1329   1.405   1_545  A
C1328      H1333   1.084       .  S
C1329      C1330   1.418       .  A
C1330      C1334   1.505       .  S
C1331      C1336   1.413       .  A
C1331      C1340   1.400       .  A
C1332      H1348   1.110       .  S
C1332      H1349   1.110       .  S
C1332      H1350   1.111       .  S
C1334      H1345   1.111       .  S
C1334      H1346   1.106       .  S
C1334      H1347   1.105       .  S
C1336      C1341   1.507   1_565  S
C1336      C1337   1.402       .  A
C1337      C1338   1.400       .  A
C1337      H1342   1.084       .  S
C1338      C1339   1.416       .  A
C1339      C1343   1.508       .  S
C1339      C1340   1.402       .  A
C1340      H1344   1.084       .  S
C1341      H1351   1.111       .  S
C1341      H1352   1.110   1_545  S
C1341      H1353   1.110       .  S
C1343      H1354   1.110       .  S
C1343      H1355   1.107       .  S
C1343      H1356   1.110       .  S
C1357      C1358   1.396       .  A
C1357      C1362   1.405       .  A
C1357      H1367   1.085       .  S
C1358      C1359   1.405       .  A
C1358      C1363   1.479       .  S
C1359      C1364   1.509       .  S
C1359      C1360   1.401       .  A
C1360      C1361   1.414       .  A
C1360      H1365   1.076       .  S
C1361      C1362   1.430       .  A
C1362      C1366   1.511       .  S
C1363      C1368   1.407       .  A
C1363      C1372   1.397       .  A
C1364      H1380   1.110       .  S
C1364      H1381   1.109       .  S
C1364      H1382   1.111       .  S
C1366      H1377   1.111       .  S
C1366      H1378   1.110       .  S
C1366      H1379   1.103       .  S
C1368      C1373   1.507       .  S
C1368      C1369   1.403       .  A
C1369      C1370   1.410       .  A
C1369      H1374   1.084       .  S
C1370      C1371   1.424       .  A
C1371      C1375   1.505       .  S
C1371      C1372   1.405       .  A
C1372      H1376   1.084       .  S
C1373      H1383   1.111       .  S
C1373      H1384   1.110       .  S
C1373      H1385   1.109       .  S
C1375      H1386   1.109       .  S
C1375      H1387   1.110       .  S
C1375      H1388   1.111       .  S
C1389      C1390   1.399       .  A
C1389      C1394   1.403       .  A
C1389      H1399   1.084       .  S
C1390      C1391   1.410       .  A
C1390      C1395   1.481       .  S
C1391      C1396   1.506       .  S
C1391      C1392   1.406       .  A
C1392      C1393   1.406       .  A
C1392      H1397   1.084       .  S
C1393      C1394   1.418       .  A
C1394      C1398   1.507       .  S
C1395      C1400   1.411       .  A
C1395      C1404   1.398       .  A
C1396      H1412   1.110       .  S
C1396      H1413   1.110       .  S
C1396      H1414   1.111       .  S
C1398      H1409   1.109       .  S
C1398      H1410   1.111       .  S
C1398      H1411   1.111       .  S
C1400      C1405   1.505       .  S
C1400      C1401   1.406       .  A
C1401      C1402   1.404       .  A
C1401      H1406   1.084       .  S
C1402      C1403   1.421       .  A
C1403      C1407   1.510       .  S
C1403      C1404   1.400       .  A
C1404      H1408   1.085       .  S
C1405      H1415   1.111       .  S
C1405      H1416   1.110       .  S
C1405      H1417   1.110       .  S
C1407      H1418   1.110       .  S
C1407      H1419   1.106       .  S
C1407      H1420   1.111       .  S
