geometry optimzed in LAMMPS
_audit_creation_date              2020-12-01 
_audit_creation_method            'lammps2cif' 
_symmetry_space_group_name_H-M    'P1' 
_symmetry_Int_Tables_number       1 
_symmetry_cell_setting            triclinic 
loop_ 
_symmetry_equiv_pos_as_xyz 
  x,y,z 
_cell_length_a                    30.14698645 
_cell_length_b                    39.60819849929396 
_cell_length_c                    37.530296320697 
_cell_angle_alpha                 90.02368660509595 
_cell_angle_beta                  90.00079022667818 
_cell_angle_gamma                 90.0076092285097 
loop_ 
_atom_site_label 
_atom_site_type_symbol 
_atom_site_fract_x 
_atom_site_fract_y 
_atom_site_fract_z 
_atom_site_charge 
O1          O  0.48855465  0.37410222  0.18280147    -0.71700
O2          O  0.48801583  0.42209505  0.09497915    -0.71900
O3          O  0.42506407  0.39836757  0.13902716    -0.71800
O4          O  0.55097597  0.39808075  0.13824732    -0.71800
O5          O  0.55057553  0.34968594  0.11093398    -0.71800
O6          O  0.42465356  0.35104504  0.10973491    -0.71800
O7          O  0.48910264  0.37458637  0.06616968    -0.71700
O8          O  0.48674545  0.32656956  0.15406420    -0.71900
V9          V  0.48803139  0.39719016  0.13827261     1.35200
V10         V  0.48764073  0.35143133  0.11071027     1.35200
C11         C  0.48831081  0.34212670  0.18349065     0.77500
C12         C  0.48968987  0.40658019  0.06555064     0.77600
C13         C  0.40340210  0.37480079  0.12440406     0.77400
C14         C  0.57217581  0.37379941  0.12454740     0.77400
O15         O  0.98807118  0.37610573  0.18272775    -0.71700
O16         O  0.98782346  0.32738333  0.09533756    -0.71900
O17         O  0.05064948  0.35151403  0.13886073    -0.71800
O18         O  0.92480634  0.35169492  0.13897250    -0.71800
O19         O  0.92482215  0.39855344  0.10895527    -0.71800
O20         O  0.05079527  0.39966494  0.11117494    -0.71800
O21         O  0.98965346  0.37466693  0.06618535    -0.71700
O22         O  0.98655314  0.42340500  0.15359770    -0.71900
V23         V  0.98772838  0.35263205  0.13845687     1.35200
V24         V  0.98782885  0.39813141  0.11048664     1.35200
C25         C  0.98796232  0.40808474  0.18314396     0.77500
C26         C  0.98979234  0.34268606  0.06579792     0.77600
C27         C  0.07218382  0.37562676  0.12517535     0.77400
C28         C  0.90331150  0.37502118  0.12380936     0.77400
O29         O  0.49789221  0.12405284  0.43337077    -0.71700
O30         O  0.49965736  0.17343500  0.34641226    -0.71900
O31         O  0.43584453  0.14979558  0.38960659    -0.71800
O32         O  0.56181183  0.14795119  0.39026939    -0.71800
O33         O  0.56095668  0.10123732  0.35980202    -0.71800
O34         O  0.43496755  0.10207761  0.36108096    -0.71800
O35         O  0.49770378  0.12631632  0.31691219    -0.71700
O36         O  0.49809885  0.07699140  0.40373587    -0.71900
V37         V  0.49879699  0.14788792  0.38936382     1.35200
V38         V  0.49793747  0.10260463  0.36092236     1.35200
C39         C  0.49782344  0.09206864  0.43343716     0.77500
C40         C  0.49885383  0.15825722  0.31673539     0.77600
C41         C  0.41392231  0.12607335  0.37553479     0.77400
C42         C  0.58270141  0.12438331  0.37502171     0.77400
O43         O  0.00065375  0.12593218  0.43311060    -0.71700
O44         O  0.99555009  0.07697047  0.34597665    -0.71900
O45         O  0.06113014  0.10066447  0.38750313    -0.71800
O46         O  0.93521587  0.10233796  0.39168489    -0.71800
O47         O  0.93488780  0.14739303  0.35871813    -0.71800
O48         O  0.06078736  0.14984511  0.36191207    -0.71800
O49         O  0.00006334  0.12407849  0.31669903    -0.71700
O50         O  0.99548568  0.17300956  0.40384478    -0.71900
V51         V  0.99814309  0.10236064  0.38901618     1.35200
V52         V  0.99780618  0.14768020  0.36081405     1.35200
C53         C  0.99804120  0.15782948  0.43343654     0.77500
C54         C  0.99780251  0.09215215  0.31636773     0.77600
C55         C  0.08245261  0.12537669  0.37476104     0.77400
C56         C  0.91355985  0.12486758  0.37534656     0.77400
O57         O  0.50520146  0.37585631  0.43334943    -0.71700
O58         O  0.50481200  0.32726248  0.34584981    -0.71900
O59         O  0.56808995  0.35116522  0.38927871    -0.71800
O60         O  0.44223270  0.35158806  0.38976793    -0.71800
O61         O  0.44222390  0.39886534  0.36048574    -0.71800
O62         O  0.56821086  0.39896128  0.36092159    -0.71800
O63         O  0.50533965  0.37460015  0.31675475    -0.71700
O64         O  0.50464988  0.42314548  0.40418127    -0.71900
V65         V  0.50514011  0.35241206  0.38903513     1.35200
V66         V  0.50518628  0.39793824  0.36109961     1.35200
C67         C  0.50432535  0.40783416  0.43373562     0.77500
C68         C  0.50471036  0.34264380  0.31630141     0.77600
C69         C  0.58962991  0.37499084  0.37505416     0.77400
C70         C  0.42074483  0.37531083  0.37530342     0.77400
O71         O  0.06829136  0.39929553  0.38851074    -0.71700
O72         O  0.94241021  0.39867907  0.38895045    -0.71900
O73         O  0.00581357  0.37462245  0.43268474    -0.71800
O74         O  0.00499392  0.42303295  0.34518890    -0.71800
O75         O  0.00516812  0.37565430  0.31611668    -0.71800
O76         O  0.00589623  0.32723617  0.40363775    -0.71800
O77         O  0.94255930  0.35103464  0.36024874    -0.71700
O78         O  0.06853106  0.35148890  0.36005270    -0.71900
V79         V  0.00539161  0.39794413  0.38832563     1.35200
V80         V  0.00556572  0.35231965  0.36049648     1.35200
C81         C  0.08979753  0.37543329  0.37434264     0.77500
C82         C  0.92102082  0.37476787  0.37468760     0.77600
C83         C  0.00592104  0.34264389  0.43315756     0.77400
C84         C  0.00471320  0.40763406  0.31566619     0.77400
C85         C  0.50292969  0.42683968  0.46786355     0.03200
C86         C  0.50072216  0.46236232  0.46806705    -0.13000
C87         C  0.50028791  0.47952770  0.99935602     0.00700
C88         C  0.49175438  0.46092918  0.03083471    -0.11500
C89         C  0.49412917  0.42541205  0.03144930     0.03200
C90         C  0.50268128  0.40798648  0.99964911    -0.10900
H91         H  0.49812257  0.47469730  0.44265137     0.08800
H92         H  0.48287334  0.47376552  0.05519386     0.06300
H93         H  0.50362913  0.38063984  0.99979236     0.06200
C94         C  0.50350435  0.07327426  0.03257786     0.03200
C95         C  0.50560414  0.03773230  0.03221787    -0.13800
C96         C  0.50043507  0.01910469  0.00025104     0.00700
C97         C  0.49700407  0.03729996  0.46752881    -0.11500
C98         C  0.49817528  0.07285713  0.46741199     0.03200
C99         C  0.49873111  0.09062596  0.00026383    -0.10900
H100        H  0.51176849  0.02493853  0.05711670     0.08800
H101        H  0.49289397  0.02486674  0.44222315     0.06300
H102        H  0.49815094  0.11797481  0.00024756     0.06200
C103        C  0.50703002  0.17715222  0.21790758     0.03200
C104        C  0.50726194  0.21269628  0.21816242    -0.13000
C105        C  0.50152007  0.23125072  0.25011653     0.00700
C106        C  0.49731317  0.21266165  0.28218762    -0.11500
C107        C  0.50003073  0.17720948  0.28261713     0.03200
C108        C  0.50414644  0.15974377  0.25030723    -0.10900
H109        H  0.51209175  0.22546023  0.19308848     0.08800
H110        H  0.49126181  0.22527516  0.30719013     0.06300
H111        H  0.50502099  0.13239941  0.25036754     0.06200
C112        C  0.50260165  0.32375913  0.28212997     0.03200
C113        C  0.50579295  0.28832911  0.28172112    -0.13000
C114        C  0.49967898  0.26953284  0.25000253     0.00700
C115        C  0.49174119  0.28786105  0.21822580    -0.11500
C116        C  0.49157048  0.32341136  0.21774148     0.03200
C117        C  0.49630909  0.34105367  0.24992607    -0.10900
H118        H  0.51348657  0.27586093  0.30650054     0.08800
H119        H  0.48546893  0.27490603  0.19345940     0.06300
H120        H  0.49506970  0.36838656  0.24991678     0.06200
C121        C  0.99138729  0.42698351  0.21726156     0.03200
C122        C  0.99227526  0.46254911  0.21767035    -0.13000
C123        C  0.00066128  0.48087440  0.24942897     0.00700
C124        C  0.00656177  0.46198363  0.28113127    -0.11500
C125        C  0.00267039  0.42657980  0.28155634     0.03200
C126        C  0.99586592  0.40934943  0.24942900    -0.10900
H127        H  0.98631351  0.47546529  0.19285062     0.08800
H128        H  0.01466549  0.47430655  0.30590624     0.06300
H129        H  0.99411039  0.38202808  0.24946477     0.06200
C130        C  0.99868922  0.07315893  0.28220880     0.03200
C131        C  0.99583169  0.03768370  0.28173108    -0.13000
C132        C  0.00028523  0.01907917  0.24966373     0.00700
C133        C  0.00607642  0.03763128  0.21771292    -0.11500
C134        C  0.00594581  0.07319548  0.21749273     0.03200
C135        C  0.00301212  0.09059872  0.24991510    -0.10900
H136        H  0.98977742  0.02501059  0.30669121     0.08800
H137        H  0.01097228  0.02482944  0.19264956     0.06300
H138        H  0.00399415  0.11794286  0.25000564     0.06200
C139        C  0.99856540  0.17682221  0.46755885     0.03200
C140        C  0.99773296  0.21233785  0.46778140    -0.13000
C141        C  0.99855519  0.23123322  0.00005465     0.00700
C142        C  0.00457331  0.21277744  0.03199197    -0.11500
C143        C  0.00315960  0.17725558  0.03241529     0.03200
C144        C  0.99822382  0.15977107  0.00017482    -0.10900
H145        H  0.99400979  0.22475235  0.44246759     0.08800
H146        H  0.01096198  0.22569467  0.05680356     0.06300
H147        H  0.99820908  0.13241725  0.00021259     0.06200
C148        C  0.99386969  0.32366878  0.03179161     0.03200
C149        C  0.99132113  0.28817725  0.03137345    -0.13000
C150        C  0.99947162  0.26945103  0.99991970     0.00700
C151        C  0.00608034  0.28819300  0.46764538    -0.11500
C152        C  0.00527271  0.32374128  0.46734115     0.03200
C153        C  0.00203174  0.34091171  0.99981727    -0.10900
H154        H  0.98266700  0.27547162  0.05585076     0.08800
H155        H  0.01008291  0.27571397  0.44238467     0.06300
H156        H  0.00364752  0.36857917  0.49975225     0.06200
O157        O  0.50529258  0.12436828  0.06698805    -0.71700
O158        O  0.50906092  0.17336121  0.15420520    -0.71900
O159        O  0.57017502  0.14841982  0.10945400    -0.71800
O160        O  0.44429894  0.14973097  0.11222779    -0.71800
O161        O  0.44441969  0.10154333  0.13989179    -0.71800
O162        O  0.57035517  0.10149148  0.13941730    -0.71800
O163        O  0.50761055  0.12613246  0.18347289    -0.71700
O164        O  0.50711922  0.07714221  0.09624313    -0.71900
V165        V  0.50724979  0.14800559  0.11120217     1.35200
V166        V  0.50740604  0.10253640  0.13925521     1.35200
C167        C  0.50565184  0.09237146  0.06665841     0.77500
C168        C  0.50834296  0.15811156  0.18380010     0.77600
C169        C  0.59169985  0.12487711  0.12421311     0.77400
C170        C  0.42293879  0.12577344  0.12637542     0.77400
O171        O  0.00627776  0.12630072  0.06673954    -0.71700
O172        O  0.00859970  0.07715278  0.15378359    -0.71900
O173        O  0.94457047  0.10087598  0.11096306    -0.71800
O174        O  0.07051034  0.10246861  0.10985816    -0.71800
O175        O  0.06996635  0.14941460  0.13976754    -0.71800
O176        O  0.94406566  0.14870714  0.13929813    -0.71800
O177        O  0.00696497  0.12430230  0.18321823    -0.71700
O178        O  0.00686213  0.17350211  0.09611456    -0.71900
V179        V  0.00754675  0.10265032  0.11085538     1.35200
V180        V  0.00702409  0.14802876  0.13908863     1.35200
C181        C  0.00589887  0.15827386  0.06648774     0.77500
C182        C  0.00761033  0.09231583  0.18343538     0.77600
C183        C  0.92285032  0.12468079  0.12509375     0.77400
C184        C  0.09173117  0.12610068  0.12481175     0.77400
C185        C  0.23426514  0.06575592  0.11441081    -0.17800
C186        C  0.28061334  0.06556018  0.11550031    -0.19900
C187        C  0.30418745  0.09558142  0.12146159     0.20700
C188        C  0.28086354  0.12612990  0.12649954    -0.02900
C189        C  0.23406530  0.12622008  0.12601913    -0.05900
C190        C  0.21072345  0.09590846  0.11967881     0.21000
C191        C  0.21067704  0.15660445  0.13183422     0.19200
C192        C  0.23428524  0.18666312  0.13766296    -0.17400
C193        C  0.28070530  0.18668397  0.13750221    -0.19600
C194        C  0.30428404  0.15658200  0.13190709     0.20600
C195        C  0.35083216  0.15635581  0.13150329    -0.32600
C196        C  0.37411542  0.12593957  0.12685038     0.01300
C197        C  0.35066781  0.09562643  0.12225768    -0.24000
C198        C  0.16425752  0.09623397  0.11883531    -0.28500
C199        C  0.14071511  0.12629602  0.12501036     0.07000
C200        C  0.16412987  0.15637274  0.13165544    -0.27200
H201        H  0.21681133  0.04226495  0.10960694     0.11700
H202        H  0.29804273  0.04192742  0.11149949     0.12900
H203        H  0.21684461  0.21021308  0.14212102     0.11900
H204        H  0.29817130  0.21025392  0.14180286     0.11200
H205        H  0.36900199  0.17970951  0.13531283     0.16600
H206        H  0.36869714  0.07220671  0.11842733     0.12500
H207        H  0.14636759  0.07293097  0.11394430     0.15300
H208        H  0.14612894  0.17966159  0.13625727     0.15100
C209        C  0.78049182  0.18607348  0.12593488    -0.17800
C210        C  0.73411944  0.18613069  0.12505899    -0.19900
C211        C  0.71050884  0.15560394  0.12416048     0.20700
C212        C  0.73382317  0.12468548  0.12405065    -0.02900
C213        C  0.78061878  0.12464177  0.12428620    -0.05900
C214        C  0.80401256  0.15549742  0.12551031     0.21000
C215        C  0.80395795  0.09374771  0.12334231     0.19200
C216        C  0.78032744  0.06321588  0.12269084    -0.17400
C217        C  0.73393042  0.06324495  0.12311749    -0.19600
C218        C  0.71040174  0.09381461  0.12377642     0.20600
C219        C  0.66389014  0.09408144  0.12418714    -0.32600
C220        C  0.64055800  0.12478521  0.12387109     0.01300
C221        C  0.66401242  0.15543314  0.12354029    -0.24000
C222        C  0.85050091  0.15523287  0.12624013    -0.28500
C223        C  0.87392812  0.12458525  0.12486344     0.07000
C224        C  0.85048869  0.09394943  0.12316480    -0.27200
H225        H  0.79797354  0.20996873  0.12680525     0.11700
H226        H  0.71670880  0.21007107  0.12526882     0.12900
H227        H  0.79773816  0.03928899  0.12203516     0.11900
H228        H  0.71644120  0.03933833  0.12280381     0.11200
H229        H  0.64579121  0.07041969  0.12420641     0.16600
H230        H  0.64601260  0.17913954  0.12357206     0.12500
H231        H  0.86851365  0.17891334  0.12727544     0.15300
H232        H  0.86849355  0.07026567  0.12231692     0.15100
C233        C  0.27817590  0.31538261  0.38880361    -0.17800
C234        C  0.23180787  0.31523737  0.38787462    -0.19900
C235        C  0.20830180  0.34516708  0.38127964     0.20700
C236        C  0.23170088  0.37560911  0.37575707    -0.02900
C237        C  0.27847888  0.37563251  0.37606412    -0.05900
C238        C  0.30178248  0.34537776  0.38272610     0.21000
C239        C  0.30188790  0.40587746  0.36954750     0.19200
C240        C  0.27836669  0.43590987  0.36348230    -0.17400
C241        C  0.23198148  0.43600870  0.36380821    -0.19600
C242        C  0.20837685  0.40600542  0.36980902     0.20600
C243        C  0.16187997  0.40581143  0.36987771    -0.32600
C244        C  0.13854157  0.37547616  0.37466995     0.01300
C245        C  0.16182768  0.34522386  0.38011405    -0.24000
C246        C  0.34827037  0.34559409  0.38291311    -0.28500
C247        C  0.37179087  0.37549136  0.37577742     0.07000
C248        C  0.34838428  0.40553368  0.36911953    -0.27200
H249        H  0.29559027  0.29195074  0.39395116     0.11700
H250        H  0.21432796  0.29170609  0.39232769     0.12900
H251        H  0.29585399  0.45935723  0.35856025     0.11900
H252        H  0.21456041  0.45953192  0.35916305     0.11200
H253        H  0.14377965  0.42911238  0.36551805     0.16600
H254        H  0.14368444  0.32189181  0.38415169     0.12500
H255        H  0.36615813  0.32234081  0.38798511     0.15300
H256        H  0.36636962  0.42872272  0.36392670     0.15100
C257        C  0.77848062  0.31323611  0.37652944    -0.17800
C258        C  0.73206688  0.31328720  0.37716219    -0.19900
C259        C  0.70850776  0.34384715  0.37633740     0.20700
C260        C  0.73194393  0.37467799  0.37499337    -0.02900
C261        C  0.77876194  0.37464477  0.37500021    -0.05900
C262        C  0.80212035  0.34375413  0.37546605     0.21000
C263        C  0.80215867  0.40551897  0.37451597     0.19200
C264        C  0.77862175  0.43606457  0.37350233    -0.17400
C265        C  0.73224556  0.43607912  0.37285569    -0.19600
C266        C  0.70862751  0.40556061  0.37363554     0.20600
C267        C  0.66212348  0.40539751  0.37317463    -0.32600
C268        C  0.63858593  0.37482948  0.37498033     0.01300
C269        C  0.66196174  0.34415060  0.37677336    -0.24000
C270        C  0.84866806  0.34396220  0.37488821    -0.28500
C271        C  0.87209800  0.37464940  0.37484514     0.07000
C272        C  0.84866305  0.40530709  0.37494475    -0.27200
H273        H  0.79589963  0.28931218  0.37699764     0.11700
H274        H  0.71458338  0.28940007  0.37812618     0.12900
H275        H  0.79610208  0.45997021  0.37304051     0.11900
H276        H  0.71482992  0.45999423  0.37190208     0.11200
H277        H  0.64418874  0.42910915  0.37203718     0.16600
H278        H  0.64389122  0.32050449  0.37793047     0.12500
H279        H  0.86671140  0.32027953  0.37508124     0.15300
H280        H  0.86668731  0.42900291  0.37467640     0.15100
C281        C  0.22470707  0.18716058  0.38135585    -0.17800
C282        C  0.27112472  0.18721447  0.38226428    -0.19900
C283        C  0.29486963  0.15682377  0.37961390     0.20700
C284        C  0.27159083  0.12603807  0.37636494    -0.02900
C285        C  0.22477205  0.12593386  0.37604662    -0.05900
C286        C  0.20123636  0.15668251  0.37818260     0.21000
C287        C  0.20155069  0.09506459  0.37348318     0.19200
C288        C  0.22526491  0.06467822  0.37090602    -0.17400
C289        C  0.27163611  0.06482957  0.37062199    -0.19600
C290        C  0.29506418  0.09534152  0.37327892     0.20600
C291        C  0.34153891  0.09567787  0.37278726    -0.32600
C292        C  0.36495664  0.12619545  0.37609712     0.01300
C293        C  0.34143927  0.15665635  0.37989327    -0.24000
C294        C  0.15468425  0.15636448  0.37714795    -0.28500
C295        C  0.13141209  0.12565421  0.37501927     0.07000
C296        C  0.15503985  0.09511898  0.37345806    -0.27200
H297        H  0.20715777  0.21097306  0.38318044     0.11700
H298        H  0.28846078  0.21107070  0.38476011     0.12900
H299        H  0.20792921  0.04077610  0.36888846     0.11900
H300        H  0.28919167  0.04104590  0.36835527     0.11200
H301        H  0.35954616  0.07209925  0.37021423     0.16600
H302        H  0.35938377  0.18026454  0.38235274     0.12500
H303        H  0.13650453  0.17994550  0.37866821     0.15300
H304        H  0.13716104  0.07141681  0.37162925     0.15100
C305        C  0.77099545  0.09344302  0.43128496    -0.17800
C306        C  0.72457659  0.09345975  0.43128241    -0.19900
C307        C  0.70099874  0.10873238  0.40336184     0.20700
C308        C  0.72442238  0.12430425  0.37521316    -0.02900
C309        C  0.77123921  0.12455374  0.37539475    -0.05900
C310        C  0.79461602  0.10886152  0.40346522     0.21000
C311        C  0.79461206  0.14047960  0.34747837     0.19200
C312        C  0.77106697  0.15568142  0.31950266    -0.17400
C313        C  0.72468311  0.15518588  0.31915630    -0.19600
C314        C  0.70107225  0.13966061  0.34688937     0.20600
C315        C  0.65454283  0.13931248  0.34690306    -0.32600
C316        C  0.63129237  0.12401473  0.37492653     0.01300
C317        C  0.65444353  0.10878478  0.40306364    -0.24000
C318        C  0.84116586  0.10883725  0.40317171    -0.28500
C319        C  0.86459943  0.12485851  0.37554248     0.07000
C320        C  0.84110744  0.14083317  0.34794738    -0.27200
H321        H  0.78843476  0.08137380  0.45307659     0.11700
H322        H  0.70710278  0.08143145  0.45308228     0.12900
H323        H  0.78853940  0.16791878  0.29783942     0.11900
H324        H  0.70725737  0.16706579  0.29724081     0.11200
H325        H  0.63632480  0.15108649  0.32530778     0.16600
H326        H  0.63614297  0.09704373  0.42463299     0.12500
H327        H  0.85917867  0.09669398  0.42464143     0.15300
H328        H  0.85905718  0.15305839  0.32649916     0.15100
C329        C  0.26069339  0.31377844  0.12584044    -0.17800
C330        C  0.21431475  0.31391766  0.12668709    -0.19900
C331        C  0.19089030  0.34453722  0.12631861     0.20700
C332        C  0.21439368  0.37535053  0.12523915    -0.02900
C333        C  0.26119304  0.37522154  0.12502804    -0.05900
C334        C  0.28441206  0.34426351  0.12502822     0.21000
C335        C  0.28471432  0.40604913  0.12479039     0.19200
C336        C  0.26127745  0.43666202  0.12420430    -0.17400
C337        C  0.21488440  0.43677716  0.12376401    -0.19600
C338        C  0.19116132  0.40628986  0.12431942     0.20600
C339        C  0.14464419  0.40617928  0.12396818    -0.32600
C340        C  0.12109115  0.37558921  0.12540160     0.01300
C341        C  0.14439504  0.34489021  0.12685863    -0.24000
C342        C  0.33091920  0.34435469  0.12428559    -0.28500
C343        C  0.35449622  0.37496159  0.12454702     0.07000
C344        C  0.33123361  0.40570080  0.12506178    -0.27200
H345        H  0.27802528  0.28980393  0.12595894     0.11700
H346        H  0.19675514  0.29005356  0.12744410     0.12900
H347        H  0.27884135  0.46053898  0.12391546     0.11900
H348        H  0.19754651  0.46073949  0.12312280     0.11200
H349        H  0.12672891  0.42990629  0.12308886     0.16600
H350        H  0.12629298  0.32124249  0.12772260     0.12500
H351        H  0.34883746  0.32061015  0.12416389     0.15300
H352        H  0.34939228  0.42934064  0.12503400     0.15100
C353        C  0.76024635  0.43446705  0.11058428    -0.17800
C354        C  0.71387469  0.43438844  0.11134177    -0.19900
C355        C  0.69056099  0.40436879  0.11793181     0.20700
C356        C  0.71414844  0.37408520  0.12380846    -0.02900
C357        C  0.76094258  0.37429059  0.12367414    -0.05900
C358        C  0.78406263  0.40460097  0.11680503     0.21000
C359        C  0.78455065  0.34420229  0.13045419     0.19200
C360        C  0.76121344  0.31412782  0.13681838    -0.17400
C361        C  0.71481749  0.31379718  0.13631424    -0.19600
C362        C  0.69099785  0.34361732  0.12986140     0.20600
C363        C  0.64446870  0.34357727  0.12945679    -0.32600
C364        C  0.62094657  0.37377986  0.12426045     0.01300
C365        C  0.64409064  0.40408706  0.11875130    -0.24000
C366        C  0.83057376  0.40454640  0.11642310    -0.28500
C367        C  0.85430795  0.37475649  0.12356616     0.07000
C368        C  0.83105916  0.34471681  0.13070572    -0.27200
H369        H  0.77749765  0.45795441  0.10534762     0.11700
H370        H  0.69623309  0.45781347  0.10668421     0.12900
H371        H  0.77885634  0.29080305  0.14200526     0.11900
H372        H  0.69755921  0.29022910  0.14111082     0.11200
H373        H  0.62650049  0.32023515  0.13392236     0.16600
H374        H  0.62582946  0.42732626  0.11445010     0.12500
H375        H  0.84831827  0.42782212  0.11111803     0.15300
H376        H  0.84918609  0.32162239  0.13604437     0.15100
O377        O  0.50190861  0.37382570  0.68362924    -0.71700
O378        O  0.50145851  0.42298323  0.59649517    -0.71900
O379        O  0.43856509  0.39857373  0.64005300    -0.71800
O380        O  0.56450812  0.39857035  0.63961348    -0.71800
O381        O  0.56436041  0.35053671  0.61160091    -0.71800
O382        O  0.43847275  0.35159151  0.61015144    -0.71800
O383        O  0.50260541  0.37579307  0.56711908    -0.71700
O384        O  0.50033588  0.32665769  0.65421511    -0.71900
V385        V  0.50155951  0.39753057  0.63945387     1.35200
V386        V  0.50141089  0.35211011  0.61127115     1.35200
C387        C  0.50136961  0.34183425  0.68385955     0.77500
C388        C  0.50240306  0.40778216  0.56686116     0.77600
C389        C  0.41706937  0.37514107  0.62503048     0.77400
C390        C  0.58584069  0.37448488  0.62566701     0.77400
O391        O  0.00325879  0.37527650  0.68340469    -0.71700
O392        O  0.99979064  0.32711791  0.59577932    -0.71900
O393        O  0.06441207  0.35051703  0.63824637    -0.71800
O394        O  0.93853819  0.35152959  0.64059873    -0.71800
O395        O  0.93832843  0.39843435  0.61065043    -0.71800
O396        O  0.06427530  0.39890984  0.61103868    -0.71800
O397        O  0.00153591  0.37453504  0.56686270    -0.71700
O398        O  0.00106489  0.42269417  0.65450453    -0.71900
V399        V  0.00146456  0.35205961  0.63900159     1.35200
V400        V  0.00128461  0.39769909  0.61128174     1.35200
C401        C  0.00277078  0.40724725  0.68395665     0.77500
C402        C  0.00043456  0.34258738  0.56630667     0.77600
C403        C  0.08581883  0.37469794  0.62455170     0.77400
C404        C  0.91694435  0.37493871  0.62565812     0.77400
O405        O  0.49186358  0.12400725  0.93346655    -0.71700
O406        O  0.49081102  0.17272208  0.84609869    -0.71900
O407        O  0.42823582  0.14826135  0.89003282    -0.71800
O408        O  0.55417749  0.14871862  0.88929044    -0.71800
O409        O  0.55413625  0.10108438  0.86044118    -0.71800
O410        O  0.42816006  0.10075829  0.86110370    -0.71800
O411        O  0.49087334  0.12539283  0.81694563    -0.71700
O412        O  0.49167981  0.07669380  0.90428210    -0.71900
V413        V  0.49119797  0.14747626  0.88920410     1.35200
V414        V  0.49115122  0.10194026  0.86120413     1.35200
C415        C  0.49233934  0.09202733  0.93384420     0.77500
C416        C  0.49124337  0.15736896  0.81653877     0.77600
C417        C  0.40671011  0.12444320  0.87572138     0.77400
C418        C  0.57545915  0.12494724  0.87477107     0.77400
O419        O  0.99280114  0.12611089  0.93353329    -0.71700
O420        O  0.98936570  0.07701709  0.84638494    -0.71900
O421        O  0.05390057  0.10081748  0.88850629    -0.71800
O422        O  0.92800294  0.10210992  0.89127445    -0.71800
O423        O  0.92786702  0.14761591  0.85905046    -0.71800
O424        O  0.05380209  0.14971213  0.86229675    -0.71800
O425        O  0.99314994  0.12417244  0.81712269    -0.71700
O426        O  0.98866777  0.17321425  0.90421389    -0.71900
V427        V  0.99095280  0.10243725  0.88941420     1.35200
V428        V  0.99081267  0.14777342  0.86121409     1.35200
C429        C  0.99110998  0.15806466  0.93382096     0.77500
C430        C  0.99178349  0.09222331  0.81680225     0.77600
C431        C  0.07532028  0.12524911  0.87533084     0.77400
C432        C  0.90640031  0.12472778  0.87501944     0.77400
O433        O  0.51682439  0.37443397  0.93344817    -0.71700
O434        O  0.51849890  0.32553259  0.84601173    -0.71900
O435        O  0.58102071  0.35010459  0.89001141    -0.71800
O436        O  0.45509503  0.34945359  0.88917460    -0.71800
O437        O  0.45493019  0.39700718  0.86037620    -0.71800
O438        O  0.58087444  0.39756760  0.86104574    -0.71800
O439        O  0.51822093  0.37284930  0.81688967    -0.71700
O440        O  0.51695971  0.42166963  0.90418071    -0.71900
V441        V  0.51801078  0.35083163  0.88915826     1.35200
V442        V  0.51789493  0.39631251  0.86114414     1.35200
C443        C  0.51542376  0.40642106  0.93375270     0.77500
C444        C  0.51768775  0.34088427  0.81645336     0.77600
C445        C  0.60243549  0.37386526  0.87551672     0.77400
C446        C  0.43354190  0.37316981  0.87476689     0.77400
O447        O  0.08076696  0.39781233  0.89107936    -0.71700
O448        O  0.95481650  0.39872960  0.88782156    -0.71900
O449        O  0.01535635  0.37394473  0.93337005    -0.71800
O450        O  0.01962385  0.42253394  0.84604820    -0.71800
O451        O  0.01965769  0.37522938  0.81686097    -0.71800
O452        O  0.01646540  0.32654875  0.90435537    -0.71800
O453        O  0.95543851  0.35088448  0.85948709    -0.71700
O454        O  0.08124306  0.35031090  0.86209217    -0.71900
V455        V  0.01778497  0.39728848  0.88907842     1.35200
V456        V  0.01832567  0.35170822  0.86118597     1.35200
C457        C  0.10243010  0.37392327  0.87703598     0.77500
C458        C  0.93369346  0.37482709  0.87327594     0.77600
C459        C  0.01432132  0.34198393  0.93383546     0.77400
C460        C  0.01930237  0.40723990  0.81647912     0.77400
C461        C  0.50997781  0.42545363  0.96766742     0.03200
C462        C  0.50988058  0.46105880  0.96795704    -0.13000
C463        C  0.50145910  0.48115609  0.50026025     0.00700
C464        C  0.50311342  0.46243377  0.53250505    -0.11500
C465        C  0.50296516  0.42686133  0.53274252     0.03200
C466        C  0.50344156  0.40941735  0.50029882    -0.10900
H467        H  0.51765682  0.47406398  0.94346660     0.08800
H468        H  0.50496301  0.47484649  0.55793229     0.06300
H469        H  0.50420336  0.38206497  0.50028777     0.06200
C470        C  0.50269867  0.07263949  0.53216053     0.03200
C471        C  0.50442263  0.03714315  0.53171988    -0.13800
C472        C  0.50082464  0.01851364  0.49956887     0.00700
C473        C  0.49436460  0.03754352  0.96831339    -0.11500
C474        C  0.49480947  0.07309773  0.96796061     0.03200
C475        C  0.50026983  0.09018594  0.49987305    -0.10900
H476        H  0.50900922  0.02464084  0.55691878     0.08800
H477        H  0.48887495  0.02457214  0.94340240     0.06300
H478        H  0.50008923  0.11753690  0.50001011     0.06200
C479        C  0.50164022  0.17581442  0.71775610     0.03200
C480        C  0.50559433  0.21124131  0.71806479    -0.13000
C481        C  0.50164711  0.23007104  0.75000107     0.00700
C482        C  0.49478950  0.21177664  0.78197495    -0.11500
C483        C  0.49365002  0.17623174  0.78237217     0.03200
C484        C  0.49640079  0.15859579  0.75007288    -0.10900
H485        H  0.51234966  0.22368393  0.69308810     0.08800
H486        H  0.49010325  0.22476286  0.80695690     0.06300
H487        H  0.49455255  0.13128272  0.75008728     0.06200
C488        C  0.51424481  0.32208839  0.78226692     0.03200
C489        C  0.51319248  0.28655671  0.78177448    -0.13000
C490        C  0.50480012  0.26833405  0.74998058     0.00700
C491        C  0.49931822  0.28722965  0.71821485    -0.11500
C492        C  0.50322662  0.32266626  0.71788741     0.03200
C493        C  0.50991649  0.33979486  0.75011820    -0.10900
H494        H  0.51906433  0.27352773  0.80655700     0.08800
H495        H  0.49149949  0.27484063  0.69339769     0.06300
H496        H  0.51170622  0.36711456  0.75018468     0.06200
C497        C  0.00520452  0.42611726  0.71810054     0.03200
C498        C  0.00084187  0.46149237  0.71870807    -0.13000
C499        C  0.00617881  0.48028783  0.75054686     0.00700
C500        C  0.01480244  0.46188305  0.78221476    -0.11500
C501        C  0.01634242  0.42628988  0.78240905     0.03200
C502        C  0.01234542  0.40879154  0.75011945    -0.10900
H503        H  0.99255097  0.47385863  0.69401718     0.08800
H504        H  0.02022233  0.47477855  0.80714191     0.06300
H505        H  0.01440266  0.38148384  0.74994673     0.06200
C506        C  0.99425742  0.07324938  0.78270651     0.03200
C507        C  0.99478370  0.03770562  0.78237990    -0.13000
C508        C  0.00133531  0.01932408  0.75043191     0.00700
C509        C  0.00562168  0.03803152  0.71843239    -0.11500
C510        C  0.00225764  0.07348917  0.71804393     0.03200
C511        C  0.99736637  0.09079776  0.75036840    -0.10900
H512        H  0.98990105  0.02476186  0.80735423     0.08800
H513        H  0.01214357  0.02545278  0.69348126     0.06300
H514        H  0.99590098  0.11812894  0.75034832     0.06200
C515        C  0.99335102  0.17715314  0.96788150     0.03200
C516        C  0.99210917  0.21268886  0.96820772    -0.13000
C517        C  0.00143006  0.23106466  0.49985277     0.00700
C518        C  0.00447136  0.21236933  0.53202096    -0.11500
C519        C  0.00249977  0.17686201  0.53238423     0.03200
C520        C  0.00028073  0.15939234  0.49999239    -0.10900
H521        H  0.98598772  0.22557223  0.94334200     0.08800
H522        H  0.00872530  0.22477050  0.55729134     0.06300
H523        H  0.99984070  0.13203716  0.50002410     0.06200
C524        C  0.00063276  0.32376985  0.53209690     0.03200
C525        C  0.99868899  0.28828408  0.53179746    -0.13000
C526        C  0.00209622  0.26952586  0.49974733     0.00700
C527        C  0.00885367  0.28770289  0.96838868    -0.11500
C528        C  0.00890646  0.32324344  0.96787817     0.03200
C529        C  0.00323561  0.34122700  0.49973120    -0.10900
H530        H  0.99419839  0.27592298  0.55704706     0.08800
H531        H  0.01657536  0.27458442  0.94394565     0.06300
H532        H  0.00306387  0.36825333  0.99979789     0.06200
O533        O  0.50260167  0.12347180  0.56679817    -0.71700
O534        O  0.50295826  0.17208105  0.65413080    -0.71900
O535        O  0.56564957  0.14794228  0.61049620    -0.71800
O536        O  0.43976616  0.14789952  0.61089989    -0.71800
O537        O  0.43984380  0.09998321  0.63909541    -0.71800
O538        O  0.56580643  0.10051656  0.63957938    -0.71800
O539        O  0.50240092  0.12477287  0.68328622    -0.71700
O540        O  0.50334663  0.07611971  0.59586616    -0.71900
V541        V  0.50273501  0.14687398  0.61107763     1.35200
V542        V  0.50285147  0.10130370  0.63896904     1.35200
C543        C  0.50309269  0.09150374  0.56634805     0.77500
C544        C  0.50260000  0.15676225  0.68367348     0.77600
C545        C  0.58715480  0.12427785  0.62503727     0.77400
C546        C  0.41838765  0.12392823  0.62501162     0.77400
O547        O  0.00165393  0.12596797  0.56698642    -0.71700
O548        O  0.00356248  0.07722134  0.65431064    -0.71900
O549        O  0.93958952  0.10145711  0.61175381    -0.71800
O550        O  0.06546338  0.10157407  0.60983267    -0.71800
O551        O  0.06605280  0.14857780  0.63963937    -0.71800
O552        O  0.94008158  0.14943860  0.63978879    -0.71800
O553        O  0.00282783  0.12449481  0.68354938    -0.71700
O554        O  0.00345634  0.17325241  0.59616857    -0.71900
V555        V  0.00255903  0.10251003  0.61124422     1.35200
V556        V  0.00309502  0.14799778  0.63927363     1.35200
C557        C  0.00266752  0.15793200  0.56658754     0.77500
C558        C  0.00319765  0.09250967  0.68390503     0.77600
C559        C  0.91834859  0.12545112  0.62600441     0.77400
C560        C  0.08724322  0.12505875  0.62448637     0.77400
C561        C  0.22938358  0.06437540  0.61139254    -0.17800
C562        C  0.27576281  0.06402451  0.61238267    -0.19900
C563        C  0.29952742  0.09387250  0.61887798     0.20700
C564        C  0.27633939  0.12441254  0.62439204    -0.02900
C565        C  0.22954546  0.12464492  0.62403640    -0.05900
C566        C  0.20599640  0.09449916  0.61732820     0.21000
C567        C  0.20636821  0.15500715  0.63048888     0.19200
C568        C  0.23012373  0.18492344  0.63664592    -0.17400
C569        C  0.27650965  0.18481632  0.63635211    -0.19600
C570        C  0.29989164  0.15472011  0.63029249     0.20600
C571        C  0.34639276  0.15437678  0.63001787    -0.32600
C572        C  0.36957391  0.12398935  0.62504342     0.01300
C573        C  0.34604552  0.09378002  0.61984634    -0.24000
C574        C  0.15949418  0.09495811  0.61694741    -0.28500
C575        C  0.13620772  0.12498731  0.62398084     0.07000
C576        C  0.15986665  0.15490238  0.63074917    -0.27200
H577        H  0.21179079  0.04101420  0.60626144     0.11700
H578        H  0.29305879  0.04039991  0.60797493     0.12900
H579        H  0.21282099  0.20845079  0.64155978     0.11900
H580        H  0.29410696  0.20826861  0.64100020     0.11200
H581        H  0.36463715  0.17763681  0.63428037     0.16600
H582        H  0.36402632  0.07037883  0.61575742     0.12500
H583        H  0.14140797  0.07178876  0.61184520     0.15300
H584        H  0.14206767  0.17818671  0.63591094     0.15100
C585        C  0.77539365  0.18637451  0.62960453    -0.17800
C586        C  0.72901124  0.18622158  0.62855677    -0.19900
C587        C  0.70566163  0.15561264  0.62669500     0.20700
C588        C  0.72924120  0.12482762  0.62585791    -0.02900
C589        C  0.77603719  0.12501328  0.62627139    -0.05900
C590        C  0.79920104  0.15593937  0.62836654     0.21000
C591        C  0.79960874  0.09426824  0.62449812     0.19200
C592        C  0.77625419  0.06364483  0.62294129    -0.17400
C593        C  0.72987042  0.06342969  0.62317815    -0.19600
C594        C  0.70608647  0.09385432  0.62458294     0.20600
C595        C  0.65958074  0.09387229  0.62472132    -0.32600
C596        C  0.63599407  0.12445145  0.62512311     0.01300
C597        C  0.65917051  0.15521929  0.62578663    -0.24000
C598        C  0.84573949  0.15587479  0.62893920    -0.28500
C599        C  0.86938374  0.12536644  0.62649399     0.07000
C600        C  0.84610459  0.09468928  0.62421795    -0.27200
H601        H  0.79266076  0.21033090  0.63115561     0.11700
H602        H  0.71139172  0.21005898  0.62933807     0.12900
H603        H  0.79387784  0.03982631  0.62163964     0.11900
H604        H  0.71259122  0.03945292  0.62209826     0.11200
H605        H  0.64168671  0.07012699  0.62394059     0.16600
H606        H  0.64095150  0.17882250  0.62634217     0.12500
H607        H  0.86359043  0.17959759  0.63051993     0.15300
H608        H  0.86423545  0.07108806  0.62262591     0.15100
C609        C  0.29097915  0.31225242  0.88321787    -0.17800
C610        C  0.24457260  0.31230747  0.88320341    -0.19900
C611        C  0.22106503  0.34276000  0.88013135     0.20700
C612        C  0.24453306  0.37348270  0.87712278    -0.02900
C613        C  0.29132098  0.37335977  0.87646541    -0.05900
C614        C  0.31462874  0.34260473  0.87973376     0.21000
C615        C  0.31473296  0.40399846  0.87247613     0.19200
C616        C  0.29125104  0.43447928  0.86976993    -0.17400
C617        C  0.24490116  0.43466338  0.87104220    -0.19600
C618        C  0.22126676  0.40433155  0.87463029     0.20600
C619        C  0.17478229  0.40428002  0.87550737    -0.32600
C620        C  0.15127511  0.37374544  0.87770504     0.01300
C621        C  0.17453291  0.34306624  0.87987254    -0.24000
C622        C  0.36114548  0.34275948  0.87939377    -0.28500
C623        C  0.38461442  0.37315610  0.87502946     0.07000
C624        C  0.36120247  0.40363554  0.87136579    -0.27200
H625        H  0.30837536  0.28843007  0.88571823     0.11700
H626        H  0.22706396  0.28852133  0.88564834     0.12900
H627        H  0.30874800  0.45821412  0.86679569     0.11900
H628        H  0.22751854  0.45853732  0.86900816     0.11200
H629        H  0.15680919  0.42792559  0.87355482     0.16600
H630        H  0.15635520  0.31950817  0.88179977     0.12500
H631        H  0.37910156  0.31917494  0.88205966     0.15300
H632        H  0.37919729  0.42715875  0.86828950     0.15100
C633        C  0.79175476  0.31293950  0.87673072    -0.17800
C634        C  0.74537136  0.31282525  0.87800567    -0.19900
C635        C  0.72157985  0.34326003  0.87662628     0.20700
C636        C  0.74475787  0.37413245  0.87396007    -0.02900
C637        C  0.79155970  0.37428681  0.87331498    -0.05900
C638        C  0.81512903  0.34351419  0.87448251     0.21000
C639        C  0.81473139  0.40523108  0.87162380     0.19200
C640        C  0.79095681  0.43563494  0.86987002    -0.17400
C641        C  0.74457219  0.43544248  0.86983948    -0.19600
C642        C  0.72119877  0.40486906  0.87198403     0.20600
C643        C  0.67469741  0.40450765  0.87223042    -0.32600
C644        C  0.65140970  0.37390807  0.87529956     0.01300
C645        C  0.67504929  0.34339008  0.87774465    -0.24000
C646        C  0.86163521  0.34389785  0.87364489    -0.28500
C647        C  0.88483578  0.37466383  0.87273334     0.07000
C648        C  0.86124324  0.40522312  0.87183710    -0.27200
H649        H  0.80936184  0.28911188  0.87772667     0.11700
H650        H  0.72808852  0.28890246  0.87994091     0.12900
H651        H  0.80824904  0.45958314  0.86844844     0.11900
H652        H  0.72695939  0.45924929  0.86835027     0.11200
H653        H  0.65658075  0.42810361  0.87053498     0.16600
H654        H  0.65718723  0.31970920  0.87983266     0.12500
H655        H  0.87983995  0.32030409  0.87458786     0.15300
H656        H  0.87913921  0.42895700  0.87087024     0.15100
C657        C  0.21807511  0.18597920  0.88147088    -0.17800
C658        C  0.26445020  0.18575981  0.88235324    -0.19900
C659        C  0.28787103  0.15526228  0.87942511     0.20700
C660        C  0.26436527  0.12463404  0.87572648    -0.02900
C661        C  0.21755329  0.12479868  0.87544425    -0.05900
C662        C  0.19433828  0.15566687  0.87805975     0.21000
C663        C  0.19401664  0.09410185  0.87256756     0.19200
C664        C  0.21745077  0.06362034  0.86942337    -0.17400
C665        C  0.26385891  0.06351463  0.86909530    -0.19600
C666        C  0.28760568  0.09385778  0.87227175     0.20600
C667        C  0.33414913  0.09399370  0.87202472    -0.32600
C668        C  0.35773175  0.12440362  0.87596381     0.01300
C669        C  0.33436840  0.15488247  0.87994839    -0.24000
C670        C  0.14781738  0.15565600  0.87736986    -0.28500
C671        C  0.12423094  0.12513464  0.87515278     0.07000
C672        C  0.14748868  0.09445070  0.87291968    -0.27200
H673        H  0.20075804  0.20987200  0.88360472     0.11700
H674        H  0.28201719  0.20949456  0.88513452     0.12900
H675        H  0.19987985  0.03985125  0.86710520     0.11900
H676        H  0.28118208  0.03966744  0.86649180     0.11200
H677        H  0.35204187  0.07039916  0.86919726     0.16600
H678        H  0.35242313  0.17841516  0.88279043     0.12500
H679        H  0.12990215  0.17932654  0.87931029     0.15300
H680        H  0.12931185  0.07089690  0.87091735     0.15100
C681        C  0.76354660  0.08232548  0.92168795    -0.17800
C682        C  0.71714926  0.08242926  0.92171215    -0.19900
C683        C  0.69364995  0.10338220  0.89822171     0.20700
C684        C  0.71710515  0.12456919  0.87452868    -0.02900
C685        C  0.76391569  0.12439291  0.87445551    -0.05900
C686        C  0.78721117  0.10315006  0.89814822     0.21000
C687        C  0.78736067  0.14552820  0.85075646     0.19200
C688        C  0.76385597  0.16646801  0.82723124    -0.17400
C689        C  0.71745720  0.16671356  0.82735287    -0.19600
C690        C  0.69379376  0.14596522  0.85094588     0.20600
C691        C  0.64726131  0.14619106  0.85141509    -0.32600
C692        C  0.62401556  0.12493326  0.87472254     0.01300
C693        C  0.64713391  0.10353452  0.89795128    -0.24000
C694        C  0.83373915  0.10319458  0.89798399    -0.28500
C695        C  0.85734053  0.12443036  0.87467767     0.07000
C696        C  0.83387710  0.14547566  0.85110100    -0.27200
H697        H  0.78093751  0.06592070  0.94008240     0.11700
H698        H  0.69963293  0.06609495  0.94010116     0.12900
H699        H  0.78137538  0.18278144  0.80882251     0.11900
H700        H  0.70006880  0.18319090  0.80902748     0.11200
H701        H  0.62904845  0.16258834  0.83348504     0.16600
H702        H  0.62881807  0.08725261  0.91593979     0.12500
H703        H  0.85157205  0.08694332  0.91627939     0.15300
H704        H  0.85182052  0.16177661  0.83291681     0.15100
C705        C  0.27486624  0.31355044  0.62500199    -0.17800
C706        C  0.22847870  0.31346434  0.62558082    -0.19900
C707        C  0.20480322  0.34397495  0.62535979     0.20700
C708        C  0.22808430  0.37490401  0.62469041    -0.02900
C709        C  0.27488692  0.37499808  0.62477249    -0.05900
C710        C  0.29834265  0.34415084  0.62462930     0.21000
C711        C  0.29817300  0.40593597  0.62499515     0.19200
C712        C  0.27449673  0.43644201  0.62455072    -0.17400
C713        C  0.22810857  0.43634288  0.62381841    -0.19600
C714        C  0.20462572  0.40574044  0.62393593     0.20600
C715        C  0.15811902  0.40542592  0.62338708    -0.32600
C716        C  0.13475639  0.37473406  0.62448996     0.01300
C717        C  0.15828210  0.34411748  0.62571861    -0.24000
C718        C  0.34484177  0.34445845  0.62420063    -0.28500
C719        C  0.36818039  0.37515963  0.62493430     0.07000
C720        C  0.34469680  0.40579654  0.62558513    -0.27200
H721        H  0.29239223  0.28966176  0.62500440     0.11700
H722        H  0.21110868  0.28950949  0.62603060     0.12900
H723        H  0.29186612  0.46040056  0.62461172     0.11900
H724        H  0.21058667  0.46022592  0.62331460     0.11200
H725        H  0.14004996  0.42909312  0.62272325     0.16600
H726        H  0.14034061  0.32039163  0.62636884     0.12500
H727        H  0.36293876  0.32079374  0.62395725     0.15300
H728        H  0.36268328  0.42950833  0.62590228     0.15100
C729        C  0.77426789  0.43499539  0.61374782    -0.17800
C730        C  0.72789768  0.43504171  0.61442541    -0.19900
C731        C  0.70441492  0.40496736  0.62031897     0.20700
C732        C  0.72784282  0.37450762  0.62559462    -0.02900
C733        C  0.77463506  0.37457606  0.62555369    -0.05900
C734        C  0.79791007  0.40494690  0.61937942     0.21000
C735        C  0.79808567  0.34428989  0.63171282     0.19200
C736        C  0.77458299  0.31416132  0.63735101    -0.17400
C737        C  0.72818608  0.31398059  0.63676033    -0.19600
C738        C  0.70453332  0.34399392  0.63092403     0.20600
C739        C  0.65801139  0.34408478  0.63036598    -0.32600
C740        C  0.63462885  0.37442934  0.62569231     0.01300
C741        C  0.65793132  0.40479075  0.62097307    -0.24000
C742        C  0.84440239  0.40476901  0.61907823    -0.28500
C743        C  0.86797353  0.37479280  0.62564010     0.07000
C744        C  0.84460047  0.34467308  0.63207385    -0.27200
H745        H  0.79165458  0.45852429  0.60903402     0.11700
H746        H  0.71038767  0.45860632  0.61022782     0.12900
H747        H  0.79209184  0.29068846  0.64204493     0.11900
H748        H  0.71079759  0.29037206  0.64099092     0.11200
H749        H  0.63993016  0.32070005  0.63424910     0.16600
H750        H  0.63979465  0.42815087  0.61710243     0.12500
H751        H  0.86227044  0.42809062  0.61426467     0.15300
H752        H  0.86263082  0.32143203  0.63688976     0.15100
O753        O  0.48905271  0.87392178  0.18284942    -0.71700
O754        O  0.48896941  0.92292433  0.09562379    -0.71900
O755        O  0.42577357  0.89917585  0.13944789    -0.71800
O756        O  0.55168655  0.89804547  0.13861893    -0.71800
O757        O  0.55079653  0.85003134  0.11057560    -0.71800
O758        O  0.42488683  0.85207669  0.10976537    -0.71800
O759        O  0.48929171  0.87567647  0.06632496    -0.71700
O760        O  0.48698206  0.82670503  0.15354789    -0.71900
V761        V  0.48874277  0.89755462  0.13864333     1.35200
V762        V  0.48786266  0.85208727  0.11055184     1.35200
C763        C  0.48870946  0.84192812  0.18314148     0.77500
C764        C  0.49026909  0.90765672  0.06603170     0.77600
C765        C  0.40387389  0.87585275  0.12463199     0.77400
C766        C  0.57264354  0.87383848  0.12453624     0.77400
O767        O  0.98862743  0.87596825  0.18262962    -0.71700
O768        O  0.98872718  0.82754293  0.09505335    -0.71900
O769        O  0.05140751  0.85200409  0.13851010    -0.71800
O770        O  0.92548510  0.85129570  0.13877130    -0.71800
O771        O  0.92507309  0.89821765  0.10886198    -0.71800
O772        O  0.05095362  0.90027628  0.11106239    -0.71800
O773        O  0.99011713  0.87490853  0.06603182    -0.71700
O774        O  0.98643215  0.92334545  0.15367330    -0.71900
V775        V  0.98845347  0.85266197  0.13823492     1.35200
V776        V  0.98802468  0.89824560  0.11042192     1.35200
C777        C  0.98810063  0.90794038  0.18317846     0.77500
C778        C  0.99048878  0.84292351  0.06555957     0.77600
C779        C  0.07264211  0.87631133  0.12487272     0.77400
C780        C  0.90378170  0.87452069  0.12360962     0.77400
O781        O  0.50584889  0.62511496  0.43340206    -0.71700
O782        O  0.50688428  0.67343156  0.34567607    -0.71900
O783        O  0.44356162  0.65001969  0.38921942    -0.71800
O784        O  0.56948900  0.64900047  0.38976621    -0.71800
O785        O  0.56912513  0.60218236  0.35946728    -0.71800
O786        O  0.44313121  0.60158878  0.36202825    -0.71800
O787        O  0.50456043  0.62596822  0.31681647    -0.71700
O788        O  0.50746668  0.57776465  0.40432308    -0.71900
V789        V  0.50650455  0.64846094  0.38899669     1.35200
V790        V  0.50610956  0.60283085  0.36118188     1.35200
C791        C  0.50635682  0.59311808  0.43385325     0.77500
C792        C  0.50531917  0.65790829  0.31620899     0.77600
C793        C  0.42188942  0.62582972  0.37582452     0.77400
C794        C  0.59061896  0.62557543  0.37450323     0.77400
O795        O  0.00815466  0.62555603  0.43366221    -0.71700
O796        O  0.00334536  0.57675676  0.34625235    -0.71900
O797        O  0.06890268  0.60007380  0.38827859    -0.71800
O798        O  0.94292662  0.60220092  0.39177257    -0.71800
O799        O  0.94312058  0.64784477  0.35973922    -0.71800
O800        O  0.06900819  0.64883507  0.36184041    -0.71800
O801        O  0.00719519  0.62395185  0.31708312    -0.71700
O802        O  0.00477600  0.67271937  0.40438621    -0.71900
V803        V  0.00589147  0.60203163  0.38943692     1.35200
V804        V  0.00605389  0.64741032  0.36131027     1.35200
C805        C  0.00626437  0.65750204  0.43399583     0.77500
C806        C  0.00484068  0.59204435  0.31664612     0.77600
C807        C  0.09046622  0.62445070  0.37507968     0.77400
C808        C  0.92151635  0.62515417  0.37587870     0.77400
O809        O  0.50744396  0.87483185  0.43272670    -0.71700
O810        O  0.50607238  0.82632359  0.34518087    -0.71900
O811        O  0.56972707  0.85043871  0.38809197    -0.71800
O812        O  0.44379534  0.85039374  0.38956446    -0.71800
O813        O  0.44329520  0.89786557  0.36064933    -0.71800
O814        O  0.56919277  0.89809198  0.35946472    -0.71800
O815        O  0.50556912  0.87370523  0.31616323    -0.71700
O816        O  0.50678784  0.92215249  0.40361311    -0.71900
V817        V  0.50678510  0.85143854  0.38837572     1.35200
V818        V  0.50626228  0.89699495  0.36049627     1.35200
C819        C  0.50704138  0.90681291  0.43315588     0.77500
C820        C  0.50534919  0.84175010  0.31567051     0.77600
C821        C  0.59091541  0.87427970  0.37354805     0.77400
C822        C  0.42203496  0.87412980  0.37535398     0.77400
O823        O  0.06923902  0.89885303  0.38939165    -0.71700
O824        O  0.94329742  0.89922316  0.38853495    -0.71900
O825        O  0.00543221  0.87465663  0.43299896    -0.71800
O826        O  0.00673497  0.92305528  0.34535686    -0.71800
O827        O  0.00676249  0.87564886  0.31634784    -0.71800
O828        O  0.00537720  0.82726724  0.40397337    -0.71800
O829        O  0.94340456  0.85153032  0.35990388    -0.71700
O830        O  0.06930755  0.85104020  0.36096507    -0.71900
V831        V  0.00625317  0.89798845  0.38857201     1.35200
V832        V  0.00630554  0.85234517  0.36078739     1.35200
C833        C  0.09069671  0.87486575  0.37537066     0.77500
C834        C  0.92192782  0.87539181  0.37412845     0.77600
C835        C  0.00467902  0.84266609  0.43349962     0.77400
C836        C  0.00627318  0.90763299  0.31583261     0.77400
C837        C  0.50577988  0.92579771  0.46730005     0.03200
C838        C  0.50617719  0.96136233  0.46753184    -0.13000
C839        C  0.50135512  0.98082979  0.00019867     0.00700
C840        C  0.49280901  0.96218668  0.03164277    -0.11500
C841        C  0.49472813  0.92666168  0.03205878     0.03200
C842        C  0.50277410  0.90930921  0.00012448    -0.10900
H843        H  0.51059884  0.97389677  0.44233075     0.08800
H844        H  0.48423631  0.97495807  0.05610033     0.06300
H845        H  0.50329920  0.88195793  0.00011517     0.06200
C846        C  0.50299456  0.57189031  0.03187835     0.03200
C847        C  0.50494573  0.53635811  0.03138045    -0.13800
C848        C  0.49931852  0.51782050  0.99939081     0.00700
C849        C  0.50575203  0.53851250  0.46823171    -0.11500
C850        C  0.50450794  0.57408486  0.46797177     0.03200
C851        C  0.49768364  0.58932721  0.99968007    -0.10900
H852        H  0.51145984  0.52348975  0.05618234     0.08800
H853        H  0.51093892  0.52616706  0.44306926     0.06300
H854        H  0.49715358  0.61667684  0.99979840     0.06200
C855        C  0.50911119  0.67624146  0.21700647     0.03200
C856        C  0.50840069  0.71182469  0.21707560    -0.13000
C857        C  0.50365138  0.73048463  0.24909513     0.00700
C858        C  0.50113837  0.71192533  0.28130291    -0.11500
C859        C  0.50486710  0.67654759  0.28187313     0.03200
C860        C  0.50808958  0.65895555  0.24957378    -0.10900
H861        H  0.51167613  0.72449606  0.19180397     0.08800
H862        H  0.49561340  0.72445321  0.30640682     0.06300
H863        H  0.50972896  0.63163231  0.24978185     0.06200
C864        C  0.50316191  0.82294635  0.28147886     0.03200
C865        C  0.50699436  0.78757498  0.28086323    -0.13000
C866        C  0.50115915  0.76881273  0.24905214     0.00700
C867        C  0.49302008  0.78727476  0.21735037    -0.11500
C868        C  0.49212306  0.82285714  0.21715101     0.03200
C869        C  0.49646593  0.84032980  0.24943600    -0.10900
H870        H  0.51508373  0.77520917  0.30559675     0.08800
H871        H  0.48726459  0.77446626  0.19243612     0.06300
H872        H  0.49473272  0.86765097  0.24962004     0.06200
C873        C  0.99133792  0.92677851  0.21738256     0.03200
C874        C  0.99084901  0.96233866  0.21787380    -0.13000
C875        C  0.99895943  0.98076238  0.24958476     0.00700
C876        C  0.00596282  0.96203701  0.28124184    -0.11500
C877        C  0.00354257  0.92653940  0.28166304     0.03200
C878        C  0.99697646  0.90919989  0.24951166    -0.10900
H879        H  0.98400456  0.97524624  0.19318109     0.08800
H880        H  0.01372863  0.97464756  0.30594223     0.06300
H881        H  0.99626350  0.88185249  0.24949989     0.06200
C882        C  0.00441391  0.57321212  0.28233198     0.03200
C883        C  0.00061069  0.53780511  0.28178306    -0.13000
C884        C  0.00330723  0.51920070  0.24957088     0.00700
C885        C  0.00839421  0.53779620  0.21755382    -0.11500
C886        C  0.00908867  0.57336067  0.21740620     0.03200
C887        C  0.00786513  0.59071026  0.24996833    -0.10900
H888        H  0.99505769  0.52525819  0.30686813     0.08800
H889        H  0.01194262  0.52507279  0.19231955     0.06300
H890        H  0.00946004  0.61803333  0.25011169     0.06200
C891        C  0.00459092  0.67651944  0.46812919     0.03200
C892        C  0.00623558  0.71204595  0.46841530    -0.13000
C893        C  0.99783268  0.73150825  0.99969398     0.00700
C894        C  0.00392586  0.71305217  0.03166620    -0.11500
C895        C  0.00220425  0.67752077  0.03219840     0.03200
C896        C  0.99667965  0.66002690  0.00004339    -0.10900
H897        H  0.01182305  0.72435109  0.44328049     0.08800
H898        H  0.01073183  0.72597167  0.05640088     0.06300
H899        H  0.99639750  0.63267827  0.00016161     0.06200
C900        C  0.99449033  0.82396665  0.03151876     0.03200
C901        C  0.99139523  0.78850050  0.03099322    -0.13000
C902        C  0.99922279  0.76976233  0.99949757     0.00700
C903        C  0.00110530  0.78816781  0.46799621    -0.11500
C904        C  0.00315264  0.82371893  0.46771973     0.03200
C905        C  0.00299643  0.84123328  0.99963473    -0.10900
H906        H  0.98251867  0.77581522  0.05542774     0.08800
H907        H  0.99851532  0.77576336  0.44259161     0.06300
H908        H  0.00398937  0.86853113  0.50018162     0.06200
O909        O  0.50607574  0.62295667  0.06623982    -0.71700
O910        O  0.51021002  0.67217262  0.15329332    -0.71900
O911        O  0.57112931  0.64684000  0.10869213    -0.71800
O912        O  0.44532247  0.64869518  0.11132152    -0.71800
O913        O  0.44501475  0.60070640  0.13937417    -0.71800
O914        O  0.57101535  0.59983224  0.13851697    -0.71800
O915        O  0.50880411  0.62504212  0.18273153    -0.71700
O916        O  0.50716933  0.57576817  0.09558262    -0.71900
V917        V  0.50822824  0.64668916  0.11037703     1.35200
V918        V  0.50803577  0.60128846  0.13855565     1.35200
C919        C  0.50581293  0.59096080  0.06596450     0.77500
C920        C  0.50973357  0.65703243  0.18295099     0.77600
C921        C  0.59250765  0.62321689  0.12343728     0.77400
C922        C  0.42375609  0.62492309  0.12559486     0.77400
O923        O  0.00598003  0.62650429  0.06649930    -0.71700
O924        O  0.01026472  0.57732955  0.15358827    -0.71900
O925        O  0.94534676  0.60080090  0.11144696    -0.71800
O926        O  0.07112134  0.60277692  0.10876359    -0.71800
O927        O  0.07101542  0.64968908  0.13872663    -0.71800
O928        O  0.94498164  0.64863782  0.13976369    -0.71800
O929        O  0.00892370  0.62447450  0.18302791    -0.71700
O930        O  0.00693889  0.67369059  0.09588565    -0.71900
V931        V  0.00823574  0.60280499  0.11060685     1.35200
V932        V  0.00801234  0.64817370  0.13884785     1.35200
C933        C  0.00549307  0.65849214  0.06625753     0.77500
C934        C  0.00980979  0.59249278  0.18327106     0.77600
C935        C  0.92368941  0.62453374  0.12573624     0.77400
C936        C  0.09256515  0.62643295  0.12343387     0.77400
C937        C  0.23479146  0.56603135  0.11075822    -0.17800
C938        C  0.28113129  0.56560797  0.11210977    -0.19900
C939        C  0.30486937  0.59538341  0.11895858     0.20700
C940        C  0.28172229  0.62594639  0.12442891    -0.02900
C941        C  0.23492934  0.62625615  0.12367151    -0.05900
C942        C  0.21141874  0.59616095  0.11665314     0.21000
C943        C  0.21171209  0.65661817  0.13005144     0.19200
C944        C  0.23549175  0.68647826  0.13651175    -0.17400
C945        C  0.28190935  0.68629519  0.13662528    -0.19600
C946        C  0.30531223  0.65617842  0.13066292     0.20600
C947        C  0.35185494  0.65572041  0.13074350    -0.32600
C948        C  0.37494779  0.62527124  0.12576867     0.01300
C949        C  0.35133764  0.59517139  0.12026612    -0.24000
C950        C  0.16494792  0.59663671  0.11596263    -0.28500
C951        C  0.14156332  0.62662141  0.12297741     0.07000
C952        C  0.16516141  0.65653189  0.12999020    -0.27200
H953        H  0.21720811  0.54271254  0.10538188     0.11700
H954        H  0.29842050  0.54198028  0.10771354     0.12900
H955        H  0.21818814  0.71001471  0.14136895     0.11900
H956        H  0.29950797  0.70970011  0.14151127     0.11200
H957        H  0.37016756  0.67891177  0.13517532     0.16600
H958        H  0.36924723  0.57174639  0.11611278     0.12500
H959        H  0.14694349  0.57346799  0.11069329     0.15300
H960        H  0.14729550  0.67977820  0.13516586     0.15100
C961        C  0.78073179  0.68517219  0.12729119    -0.17800
C962        C  0.73437300  0.68499339  0.12614985    -0.19900
C963        C  0.71105595  0.65435968  0.12460357     0.20700
C964        C  0.73463489  0.62357009  0.12408944    -0.02900
C965        C  0.78143030  0.62377584  0.12460600    -0.05900
C966        C  0.80453862  0.65473502  0.12650477     0.21000
C967        C  0.80505398  0.59303151  0.12324647     0.19200
C968        C  0.78170834  0.56238877  0.12185840    -0.17400
C969        C  0.73530238  0.56215901  0.12201527    -0.19600
C970        C  0.71147748  0.59258580  0.12312298     0.20600
C971        C  0.66493856  0.59261376  0.12328997    -0.32600
C972        C  0.64136907  0.62321543  0.12336426     0.01300
C973        C  0.66458453  0.65396653  0.12371443    -0.24000
C974        C  0.85103074  0.65471656  0.12748899    -0.28500
C975        C  0.87474905  0.62422366  0.12570169     0.07000
C976        C  0.85157920  0.59349219  0.12335412    -0.27200
H977        H  0.79798074  0.70914617  0.12865577     0.11700
H978        H  0.71674016  0.70883352  0.12665721     0.12900
H979        H  0.79935058  0.53856828  0.12084775     0.11900
H980        H  0.71804014  0.53816683  0.12114819     0.11200
H981        H  0.64701814  0.56887719  0.12279879     0.16600
H982        H  0.64639561  0.67758770  0.12406435     0.12500
H983        H  0.86881647  0.67847698  0.12896928     0.15300
H984        H  0.86979272  0.56991379  0.12212382     0.15100
C985        C  0.27915082  0.81414907  0.38870155    -0.17800
C986        C  0.23274547  0.81413510  0.38802540    -0.19900
C987        C  0.20928436  0.84416402  0.38177412     0.20700
C988        C  0.23280175  0.87455173  0.37626258    -0.02900
C989        C  0.27961544  0.87444588  0.37631017    -0.05900
C990        C  0.30287816  0.84411752  0.38272248     0.21000
C991        C  0.30309644  0.90466134  0.36984014     0.19200
C992        C  0.27965015  0.93476146  0.36396870    -0.17400
C993        C  0.23326880  0.93498540  0.36455304    -0.19600
C994        C  0.20956213  0.90503809  0.37060717     0.20600
C995        C  0.16304517  0.90500008  0.37098206    -0.32600
C996        C  0.13953098  0.87473182  0.37576833     0.01300
C997        C  0.16275360  0.84437662  0.38090938    -0.24000
C998        C  0.34942509  0.84426971  0.38283875    -0.28500
C999        C  0.37301400  0.87419897  0.37589584     0.07000
C1000       C  0.34959253  0.90425992  0.36933769    -0.27200
H1001       H  0.29649439  0.79064584  0.39362652     0.11700
H1002       H  0.21519798  0.79062493  0.39243372     0.12900
H1003       H  0.29719737  0.95818089  0.35904799     0.11900
H1004       H  0.21592669  0.95857450  0.36009039     0.11200
H1005       H  0.14505870  0.92837459  0.36679503     0.16600
H1006       H  0.14452854  0.82107108  0.38488081     0.12500
H1007       H  0.36729312  0.82097897  0.38776050     0.15300
H1008       H  0.36758333  0.92746438  0.36421323     0.15100
C1009       C  0.78007322  0.81354936  0.37656473    -0.17800
C1010       C  0.73369025  0.81338642  0.37694054    -0.19900
C1011       C  0.70992442  0.84380767  0.37526820     0.20700
C1012       C  0.73309409  0.87472710  0.37325470    -0.02900
C1013       C  0.77987698  0.87492603  0.37351946    -0.05900
C1014       C  0.80343214  0.84415469  0.37490455     0.21000
C1015       C  0.80304509  0.90589538  0.37242680     0.19200
C1016       C  0.77928135  0.93629872  0.37048636    -0.17400
C1017       C  0.73290862  0.93606823  0.36959086    -0.19600
C1018       C  0.70954269  0.90545489  0.37105020     0.20600
C1019       C  0.66305604  0.90503479  0.37054847    -0.32600
C1020       C  0.63981396  0.87438057  0.37314696     0.01300
C1021       C  0.66342067  0.84387513  0.37562122    -0.24000
C1022       C  0.84991334  0.84454721  0.37464331    -0.28500
C1023       C  0.87310255  0.87530251  0.37400184     0.07000
C1024       C  0.84954475  0.90588547  0.37319734    -0.27200
H1025       H  0.79768955  0.78972877  0.37772538     0.11700
H1026       H  0.71639133  0.78944124  0.37841753     0.12900
H1027       H  0.79657505  0.96026724  0.36952827     0.11900
H1028       H  0.71529636  0.95986949  0.36796700     0.11200
H1029       H  0.64491463  0.92862363  0.36885898     0.16600
H1030       H  0.64555914  0.82016627  0.37736989     0.12500
H1031       H  0.86811137  0.82094265  0.37555091     0.15300
H1032       H  0.86746125  0.92962154  0.37247488     0.15100
C1033       C  0.23256075  0.68651143  0.37272337    -0.17800
C1034       C  0.27895853  0.68679497  0.37359262    -0.19900
C1035       C  0.30281202  0.65640316  0.37531600     0.20700
C1036       C  0.27967251  0.62541456  0.37635932    -0.02900
C1037       C  0.23285951  0.62515759  0.37607683    -0.05900
C1038       C  0.20923312  0.65585279  0.37395711     0.21000
C1039       C  0.20973818  0.59419373  0.37784537     0.19200
C1040       C  0.23358909  0.56380398  0.37947458    -0.17400
C1041       C  0.27997377  0.56402846  0.37915467    -0.19600
C1042       C  0.30328382  0.59466058  0.37757420     0.20600
C1043       C  0.34977071  0.59506588  0.37709162    -0.32600
C1044       C  0.37298806  0.62580515  0.37630854     0.01300
C1045       C  0.34936189  0.65640230  0.37580354    -0.24000
C1046       C  0.16271932  0.65534297  0.37317354    -0.28500
C1047       C  0.13947320  0.62461953  0.37530864     0.07000
C1048       C  0.16320005  0.59416348  0.37786210    -0.27200
H1049       H  0.21490850  0.71030167  0.37120076     0.11700
H1050       H  0.29619391  0.71079468  0.37271667     0.12900
H1051       H  0.21635374  0.53981883  0.38078535     0.11900
H1052       H  0.29763092  0.54021417  0.38019385     0.11200
H1053       H  0.36796031  0.57145201  0.37779707     0.16600
H1054       H  0.36723796  0.68014826  0.37501349     0.12500
H1055       H  0.14455691  0.67891867  0.37147585     0.15300
H1056       H  0.14541921  0.57040281  0.37933120     0.15100
C1057       C  0.77839847  0.59022266  0.42854051    -0.17800
C1058       C  0.73199410  0.59034077  0.42834104    -0.19900
C1059       C  0.70866963  0.60786541  0.40180096     0.20700
C1060       C  0.73231057  0.62574259  0.37535217    -0.02900
C1061       C  0.77912624  0.62577299  0.37568322    -0.05900
C1062       C  0.80225384  0.60773084  0.40227601     0.21000
C1063       C  0.80274679  0.64378115  0.34936533     0.19200
C1064       C  0.77943186  0.66144802  0.32291276    -0.17400
C1065       C  0.73303530  0.66128877  0.32247141    -0.19600
C1066       C  0.70917919  0.64354934  0.34854570     0.20600
C1067       C  0.66263099  0.64329616  0.34836020    -0.32600
C1068       C  0.63919738  0.62544734  0.37455798     0.01300
C1069       C  0.66214761  0.60782782  0.40118560    -0.24000
C1070       C  0.84879818  0.60746469  0.40208368    -0.28500
C1071       C  0.87251501  0.62545194  0.37599656     0.07000
C1072       C  0.84925016  0.64372158  0.34987970    -0.27200
H1073       H  0.79564534  0.57636134  0.44921532     0.11700
H1074       H  0.71433153  0.57658633  0.44886923     0.12900
H1075       H  0.79709868  0.67535172  0.30250015     0.11900
H1076       H  0.71579618  0.67507700  0.30173854     0.11200
H1077       H  0.64455821  0.65692988  0.32793514     0.16600
H1078       H  0.64369362  0.59420984  0.42140847     0.12500
H1079       H  0.86657377  0.59352594  0.42242718     0.15300
H1080       H  0.86736765  0.65751687  0.32961168     0.15100
C1081       C  0.26128433  0.81498741  0.12489734    -0.17800
C1082       C  0.21492691  0.81505344  0.12551796    -0.19900
C1083       C  0.19144731  0.84563725  0.12542173     0.20700
C1084       C  0.21485644  0.87650477  0.12475931    -0.02900
C1085       C  0.26165789  0.87644396  0.12477997    -0.05900
C1086       C  0.28491619  0.84550796  0.12457472     0.21000
C1087       C  0.28514138  0.90729218  0.12501192     0.19200
C1088       C  0.26161570  0.93788097  0.12460748    -0.17400
C1089       C  0.21519885  0.93793519  0.12393692    -0.19600
C1090       C  0.19152782  0.90740681  0.12409235     0.20600
C1091       C  0.14497973  0.90719154  0.12369172    -0.32600
C1092       C  0.12155087  0.87651522  0.12487787     0.01300
C1093       C  0.14497973  0.84587774  0.12592690    -0.24000
C1094       C  0.33139064  0.84561973  0.12409370    -0.28500
C1095       C  0.35496623  0.87620138  0.12478136     0.07000
C1096       C  0.33169763  0.90695564  0.12553541    -0.27200
H1097       H  0.27867188  0.79103694  0.12483166     0.11700
H1098       H  0.19742098  0.79115226  0.12593833     0.12900
H1099       H  0.27912299  0.96178209  0.12465916     0.11900
H1100       H  0.19780573  0.96187565  0.12348118     0.11200
H1101       H  0.12695796  0.93087621  0.12306594     0.16600
H1102       H  0.12697917  0.82217299  0.12653561     0.12500
H1103       H  0.34929756  0.82187230  0.12378584     0.15300
H1104       H  0.34986008  0.93058633  0.12583557     0.15100
C1105       C  0.76092120  0.93417057  0.11148888    -0.17800
C1106       C  0.71456765  0.93419169  0.11234502    -0.19900
C1107       C  0.69116028  0.90410986  0.11834930     0.20700
C1108       C  0.71462920  0.87365436  0.12351395    -0.02900
C1109       C  0.76142468  0.87374866  0.12329364    -0.05900
C1110       C  0.78462043  0.90413953  0.11704533     0.21000
C1111       C  0.78495917  0.84349135  0.12941026     0.19200
C1112       C  0.76150301  0.81334965  0.13513710    -0.17400
C1113       C  0.71508757  0.81314037  0.13470913    -0.19600
C1114       C  0.69135934  0.84313987  0.12896375     0.20600
C1115       C  0.64481189  0.84324238  0.12867078    -0.32600
C1116       C  0.62142089  0.87361452  0.12417104     0.01300
C1117       C  0.64470580  0.90394715  0.11927212    -0.24000
C1118       C  0.83110093  0.90402698  0.11667102    -0.28500
C1119       C  0.85478739  0.87410965  0.12325870     0.07000
C1120       C  0.83150056  0.84394274  0.12971104    -0.27200
H1121       H  0.77825620  0.95771634  0.10672680     0.11700
H1122       H  0.69701268  0.95774441  0.10822908     0.12900
H1123       H  0.77906325  0.78989140  0.13980085     0.11900
H1124       H  0.69774459  0.78952725  0.13903058     0.11200
H1125       H  0.62673895  0.81987302  0.13267225     0.16600
H1126       H  0.62655783  0.92732172  0.11551089     0.12500
H1127       H  0.84887912  0.92739361  0.11187613     0.15300
H1128       H  0.84961190  0.82075099  0.13458389     0.15100
O1129       O  0.50147460  0.87460364  0.68352300    -0.71700
O1130       O  0.49887776  0.92261953  0.59573597    -0.71900
O1131       O  0.43720010  0.89908809  0.64071546    -0.71800
O1132       O  0.56310757  0.89849090  0.63804547    -0.71800
O1133       O  0.56189995  0.84998739  0.61097406    -0.71800
O1134       O  0.43600489  0.85192425  0.61114358    -0.71800
O1135       O  0.49938868  0.87510676  0.56692490    -0.71700
O1136       O  0.49840011  0.82713276  0.65473482    -0.71900
V1137       V  0.50012670  0.89774222  0.63901824     1.35200
V1138       V  0.49892135  0.85200232  0.61143747     1.35200
C1139       C  0.50034302  0.84263247  0.68416642     0.77500
C1140       C  0.49904138  0.90708213  0.56628461     0.77600
C1141       C  0.41517068  0.87568830  0.62616204     0.77400
C1142       C  0.58392707  0.87405093  0.62426303     0.77400
O1143       O  0.99960022  0.87590095  0.68380952    -0.71700
O1144       O  0.00019870  0.82731505  0.59635262    -0.71900
O1145       O  0.06262548  0.85150482  0.64024059    -0.71800
O1146       O  0.93673372  0.85140878  0.63965718    -0.71800
O1147       O  0.93688751  0.89819042  0.60951442    -0.71800
O1148       O  0.06279317  0.89977582  0.61278267    -0.71800
O1149       O  0.00218636  0.87463340  0.56727852    -0.71700
O1150       O  0.99778380  0.92319768  0.65467366    -0.71900
V1151       V  0.99971787  0.85248154  0.63950157     1.35200
V1152       V  0.99985464  0.89800580  0.61157807     1.35200
C1153       C  0.99893900  0.90787315  0.68421662     0.77500
C1154       C  0.00188996  0.84266300  0.56682714     0.77600
C1155       C  0.08415802  0.87576310  0.62684849     0.77400
C1156       C  0.91529586  0.87461985  0.62422129     0.77400
O1157       O  0.48894336  0.62321723  0.93350581    -0.71700
O1158       O  0.49103502  0.67329549  0.84692592    -0.71900
O1159       O  0.42685008  0.64916504  0.88954441    -0.71800
O1160       O  0.55281585  0.64757217  0.89090290    -0.71800
O1161       O  0.55229896  0.60173889  0.85897338    -0.71800
O1162       O  0.42633818  0.60111949  0.86164355    -0.71800
O1163       O  0.48791505  0.62640622  0.81709859    -0.71700
O1164       O  0.49091254  0.57636227  0.90355734    -0.71900
V1165       V  0.48983158  0.64739434  0.88967692     1.35200
V1166       V  0.48931146  0.60232864  0.86088154     1.35200
C1167       C  0.49054218  0.59124728  0.93338703     0.77500
C1168       C  0.48983212  0.65833756  0.81713417     0.77600
C1169       C  0.40509324  0.62526435  0.87562211     0.77400
C1170       C  0.57386848  0.62458995  0.87483342     0.77400
O1171       O  0.99132748  0.62613278  0.93370838    -0.71700
O1172       O  0.98776254  0.57638673  0.84688609    -0.71900
O1173       O  0.05233268  0.60071894  0.88880311    -0.71800
O1174       O  0.92638114  0.60177324  0.89195690    -0.71800
O1175       O  0.92602775  0.64664481  0.85870622    -0.71800
O1176       O  0.05191407  0.64968054  0.86274348    -0.71800
O1177       O  0.99194079  0.62337349  0.81736636    -0.71700
O1178       O  0.98619987  0.67300481  0.90407996    -0.71900
V1179       V  0.98936687  0.60214055  0.88980228     1.35200
V1180       V  0.98895540  0.64727142  0.86126355     1.35200
C1181       C  0.98918517  0.65807509  0.93378208     0.77500
C1182       C  0.99049146  0.59142045  0.81720045     0.77600
C1183       C  0.07360385  0.62535296  0.87586862     0.77400
C1184       C  0.90471125  0.62406045  0.87526065     0.77400
O1185       O  0.51621576  0.87593834  0.93380935    -0.71700
O1186       O  0.51847733  0.82710780  0.84639781    -0.71900
O1187       O  0.58068018  0.85166821  0.89079976    -0.71800
O1188       O  0.45474352  0.85116846  0.88911198    -0.71800
O1189       O  0.45500486  0.89883312  0.86052435    -0.71800
O1190       O  0.58090797  0.89903222  0.86165544    -0.71800
O1191       O  0.51830230  0.87439059  0.81722157    -0.71700
O1192       O  0.51700371  0.92322571  0.90464291    -0.71900
V1193       V  0.51768097  0.85242254  0.88951710     1.35200
V1194       V  0.51794393  0.89791239  0.86152476     1.35200
C1195       C  0.51524821  0.90791920  0.93419188     0.77500
C1196       C  0.51767451  0.84240531  0.81681667     0.77600
C1197       C  0.60227698  0.87541921  0.87644834     0.77400
C1198       C  0.43339992  0.87496540  0.87462629     0.77400
O1199       O  0.08084427  0.89876940  0.89014153    -0.71700
O1200       O  0.95492674  0.89972040  0.88888079    -0.71900
O1201       O  0.01637799  0.87456390  0.93337024    -0.71800
O1202       O  0.01862222  0.92355551  0.84612449    -0.71800
O1203       O  0.01803382  0.87628658  0.81687061    -0.71800
O1204       O  0.01670075  0.82730561  0.90409920    -0.71800
O1205       O  0.95477757  0.85199334  0.86030971    -0.71700
O1206       O  0.08068938  0.85132890  0.86104142    -0.71900
V1207       V  0.01785224  0.89818325  0.88914345     1.35200
V1208       V  0.01770990  0.85269317  0.86108106     1.35200
C1209       C  0.10220395  0.87499121  0.87562471     0.77500
C1210       C  0.93343091  0.87594742  0.87449945     0.77600
C1211       C  0.01502676  0.84258015  0.93367125     0.77400
C1212       C  0.01755475  0.90827399  0.81654046     0.77400
C1213       C  0.51017904  0.92684425  0.96821128     0.03200
C1214       C  0.51070286  0.96241261  0.96870651    -0.13000
C1215       C  0.50134778  0.98005611  0.49952899     0.00700
C1216       C  0.49722035  0.96134913  0.53157038    -0.11500
C1217       C  0.49964656  0.92586179  0.53201041     0.03200
C1218       C  0.50325990  0.90836779  0.49970754    -0.10900
H1219       H  0.51872362  0.97539976  0.94426309     0.08800
H1220       H  0.49178573  0.97379958  0.55669977     0.06300
H1221       H  0.50403659  0.88101974  0.49978752     0.06200
C1222       C  0.49662520  0.57393228  0.53253194     0.03200
C1223       C  0.49549146  0.53839906  0.53215152    -0.13800
C1224       C  0.50079042  0.51969642  0.50019027     0.00700
C1225       C  0.49296447  0.53636142  0.96750477    -0.11500
C1226       C  0.49330817  0.57195377  0.96731394     0.03200
C1227       C  0.50054055  0.59146293  0.50029414    -0.10900
H1228       H  0.49032824  0.52598293  0.55727022     0.08800
H1229       H  0.48736891  0.52344410  0.94257051     0.06300
H1230       H  0.50057073  0.61882333  0.50036464     0.06200
C1231       C  0.49766565  0.67705868  0.71830472     0.03200
C1232       C  0.50261773  0.71241819  0.71866235    -0.13000
C1233       C  0.50018191  0.73126241  0.75074652     0.00700
C1234       C  0.49411587  0.71294650  0.78282946    -0.11500
C1235       C  0.49192672  0.67742603  0.78309297     0.03200
C1236       C  0.49299732  0.65987058  0.75066751    -0.10900
H1237       H  0.50893792  0.72474664  0.69356404     0.08800
H1238       H  0.49075285  0.72585914  0.80798579     0.06300
H1239       H  0.49031822  0.63259289  0.75060991     0.06200
C1240       C  0.51400919  0.82346584  0.78268498     0.03200
C1241       C  0.51263900  0.78789483  0.78236036    -0.13000
C1242       C  0.50383015  0.76954947  0.75068551     0.00700
C1243       C  0.49816297  0.78838075  0.71892016    -0.11500
C1244       C  0.50244695  0.82377115  0.71836663     0.03200
C1245       C  0.50958681  0.84104627  0.75045438    -0.10900
H1246       H  0.51847907  0.77495461  0.80719723     0.08800
H1247       H  0.48986002  0.77599320  0.69421609     0.06300
H1248       H  0.51157668  0.86835648  0.75035036     0.06200
C1249       C  0.00115552  0.92685282  0.71830721     0.03200
C1250       C  0.99738047  0.96226620  0.71879542    -0.13000
C1251       C  0.00383961  0.98106706  0.75047660     0.00700
C1252       C  0.01272475  0.96277839  0.78213943    -0.11500
C1253       C  0.01366342  0.92721480  0.78249081     0.03200
C1254       C  0.00858704  0.90961487  0.75034632    -0.10900
H1255       H  0.98903748  0.97474809  0.69415331     0.08800
H1256       H  0.01910616  0.97579326  0.80686582     0.06300
H1257       H  0.01035900  0.88229237  0.75026627     0.06200
C1258       C  0.99311538  0.57234791  0.78310013     0.03200
C1259       C  0.99567578  0.53683023  0.78277947    -0.13000
C1260       C  0.00213266  0.51856994  0.75067628     0.00700
C1261       C  0.00442017  0.53744718  0.71859852    -0.11500
C1262       C  0.99897551  0.57275933  0.71824906     0.03200
C1263       C  0.99416806  0.58991350  0.75067130    -0.10900
H1264       H  0.99242357  0.52388120  0.80790502     0.08800
H1265       H  0.01092439  0.52519899  0.69349070     0.06300
H1266       H  0.99109409  0.61716601  0.75065414     0.06200
C1267       C  0.99170396  0.67735372  0.96772176     0.03200
C1268       C  0.99095207  0.71292285  0.96791717    -0.13000
C1269       C  0.00118109  0.73088086  0.50033342     0.00700
C1270       C  0.99554169  0.71220308  0.53232868    -0.11500
C1271       C  0.99636883  0.67663291  0.53271236     0.03200
C1272       C  0.00030059  0.65913780  0.50042876    -0.10900
H1273       H  0.98497488  0.72580291  0.94302965     0.08800
H1274       H  0.99034328  0.72465885  0.55744704     0.06300
H1275       H  0.00002070  0.63178252  0.50043320     0.06200
C1276       C  0.00306716  0.82372212  0.53263834     0.03200
C1277       C  0.00361712  0.78817349  0.53241546    -0.13000
C1278       C  0.00195298  0.76941886  0.50023698     0.00700
C1279       C  0.00875058  0.78804265  0.96796859    -0.11500
C1280       C  0.00953855  0.82363438  0.96761854     0.03200
C1281       C  0.00347870  0.84117717  0.50017987    -0.10900
H1282       H  0.00563851  0.77575339  0.55783654     0.08800
H1283       H  0.01599969  0.77490672  0.94344281     0.06300
H1284       H  0.00447728  0.86856676  0.99974001     0.06200
O1285       O  0.49481380  0.62475403  0.56720412    -0.71700
O1286       O  0.49692580  0.67331828  0.65460978    -0.71900
O1287       O  0.55866859  0.64870909  0.61033966    -0.71800
O1288       O  0.43276581  0.64949549  0.61185414    -0.71800
O1289       O  0.43274200  0.60166713  0.64021371    -0.71800
O1290       O  0.55868858  0.60115907  0.63919075    -0.71800
O1291       O  0.49651074  0.62600176  0.68374035    -0.71700
O1292       O  0.49506192  0.57738328  0.59624082    -0.71900
V1293       V  0.49573728  0.64810691  0.61152274     1.35200
V1294       V  0.49572368  0.60252228  0.63938212     1.35200
C1295       C  0.49506765  0.59278579  0.56672500     0.77500
C1296       C  0.49718716  0.65800043  0.68415786     0.77600
C1297       C  0.58010954  0.62475546  0.62442513     0.77400
C1298       C  0.41133704  0.62560216  0.62607410     0.77400
O1299       O  0.99412512  0.62563665  0.56719536    -0.71700
O1300       O  0.99791202  0.57660670  0.65441928    -0.71900
O1301       O  0.93289203  0.60021957  0.61216955    -0.71800
O1302       O  0.05871355  0.60179772  0.60958250    -0.71800
O1303       O  0.05873469  0.64879912  0.63939599    -0.71800
O1304       O  0.93274304  0.64805819  0.64047553    -0.71800
O1305       O  0.99668491  0.62380251  0.68377438    -0.71700
O1306       O  0.99501083  0.67285383  0.59652062    -0.71900
V1307       V  0.99583966  0.60201323  0.61138241     1.35200
V1308       V  0.99575003  0.64742635  0.63954350     1.35200
C1309       C  0.99467212  0.65762236  0.56688370     0.77500
C1310       C  0.99800449  0.59182725  0.68407142     0.77600
C1311       C  0.91133013  0.62401876  0.62645297     0.77400
C1312       C  0.08020688  0.62549570  0.62411208     0.77400
C1313       C  0.22280370  0.56541134  0.61173904    -0.17800
C1314       C  0.26916933  0.56521249  0.61305298    -0.19900
C1315       C  0.29270050  0.59519296  0.61942153     0.20700
C1316       C  0.26930038  0.62572203  0.62438170    -0.02900
C1317       C  0.22251031  0.62580605  0.62370578    -0.05900
C1318       C  0.19919862  0.59551261  0.61722515     0.21000
C1319       C  0.19909622  0.65615322  0.62968835     0.19200
C1320       C  0.22263758  0.68621723  0.63557338    -0.17400
C1321       C  0.26902835  0.68625419  0.63557206    -0.19600
C1322       C  0.29263435  0.65615997  0.63009940     0.20600
C1323       C  0.33914229  0.65594501  0.63025404    -0.32600
C1324       C  0.36252226  0.62556671  0.62589723     0.01300
C1325       C  0.33919673  0.59524054  0.62081858    -0.24000
C1326       C  0.15270526  0.59578749  0.61670921    -0.28500
C1327       C  0.12916953  0.62577123  0.62342301     0.07000
C1328       C  0.15258071  0.65586498  0.62984730    -0.27200
H1329       H  0.20538505  0.54194123  0.60676237     0.11700
H1330       H  0.28663461  0.54159926  0.60903540     0.12900
H1331       H  0.20516132  0.70974137  0.64010265     0.11900
H1332       H  0.28645585  0.70981446  0.64004421     0.11200
H1333       H  0.35722315  0.67930266  0.63435206     0.16600
H1334       H  0.35732765  0.57185156  0.61713136     0.12500
H1335       H  0.13480985  0.57248190  0.61185731     0.15300
H1336       H  0.13458150  0.67911131  0.63473759     0.15100
C1337       C  0.76898255  0.68544059  0.62862489    -0.17800
C1338       C  0.72263614  0.68558595  0.62730805    -0.19900
C1339       C  0.69898738  0.65513649  0.62519336     0.20700
C1340       C  0.72223020  0.62420693  0.62410540    -0.02900
C1341       C  0.76902586  0.62409630  0.62479110    -0.05900
C1342       C  0.79245264  0.65486492  0.62740694     0.21000
C1343       C  0.79232922  0.59322950  0.62295060     0.19200
C1344       C  0.76864687  0.56277217  0.62080599    -0.17400
C1345       C  0.72223101  0.56284426  0.62079544    -0.19600
C1346       C  0.69873511  0.59339936  0.62251988     0.20600
C1347       C  0.65219653  0.59372989  0.62287457    -0.32600
C1348       C  0.62896141  0.62447993  0.62381013     0.01300
C1349       C  0.65251015  0.65506525  0.62448128    -0.24000
C1350       C  0.83892819  0.65453465  0.62863523    -0.28500
C1351       C  0.86235959  0.62393736  0.62635109     0.07000
C1352       C  0.83887091  0.59339196  0.62332168    -0.27200
H1353       H  0.78648751  0.70927755  0.63050469     0.11700
H1354       H  0.70526934  0.70952454  0.62822570     0.12900
H1355       H  0.78602692  0.53885950  0.61938294     0.11900
H1356       H  0.70470919  0.53898915  0.61941962     0.11200
H1357       H  0.63401140  0.57012000  0.62201237     0.16600
H1358       H  0.63458508  0.67879008  0.62537429     0.12500
H1359       H  0.85693282  0.67816376  0.63064739     0.15300
H1360       H  0.85684002  0.56972483  0.62169999     0.15100
C1361       C  0.29095791  0.81386447  0.88169707    -0.17800
C1362       C  0.24456900  0.81380478  0.88132931    -0.19900
C1363       C  0.22097671  0.84418004  0.87794524     0.20700
C1364       C  0.24433925  0.87494015  0.87479754    -0.02900
C1365       C  0.29113815  0.87493064  0.87451935    -0.05900
C1366       C  0.31451573  0.84425624  0.87826765     0.21000
C1367       C  0.31449259  0.90559922  0.87056402     0.19200
C1368       C  0.29090390  0.93599534  0.86733516    -0.17400
C1369       C  0.24452045  0.93607147  0.86823212    -0.19600
C1370       C  0.22095912  0.90571114  0.87197065     0.20600
C1371       C  0.17445175  0.90554734  0.87288747    -0.32600
C1372       C  0.15106709  0.87496381  0.87550095     0.01300
C1373       C  0.17445637  0.84436690  0.87772164    -0.24000
C1374       C  0.36101713  0.84451633  0.87852897    -0.28500
C1375       C  0.38446156  0.87493265  0.87432100     0.07000
C1376       C  0.36100130  0.90534005  0.87008219    -0.27200
H1377       H  0.30842037  0.79010114  0.88452435     0.11700
H1378       H  0.22713235  0.78999280  0.88385492     0.12900
H1379       H  0.30833813  0.95975211  0.86433701     0.11900
H1380       H  0.22706419  0.95989005  0.86591140     0.11200
H1381       H  0.15636788  0.92913923  0.87085982     0.16600
H1382       H  0.15638246  0.82078123  0.87993373     0.12500
H1383       H  0.37899484  0.82098281  0.88157359     0.15300
H1384       H  0.37896744  0.92888363  0.86705326     0.15100
C1385       C  0.79141833  0.81455554  0.88001487    -0.17800
C1386       C  0.74505457  0.81452023  0.88121841    -0.19900
C1387       C  0.72134883  0.84495332  0.87922845     0.20700
C1388       C  0.74458308  0.87577144  0.87621116    -0.02900
C1389       C  0.79137696  0.87585470  0.87564330    -0.05900
C1390       C  0.81484746  0.84505226  0.87723392     0.21000
C1391       C  0.81463817  0.90673150  0.87346375     0.19200
C1392       C  0.79093699  0.93715434  0.87132403    -0.17400
C1393       C  0.74453842  0.93702295  0.87121936    -0.19600
C1394       C  0.72108494  0.90649690  0.87367148     0.20600
C1395       C  0.67456943  0.90614027  0.87355911    -0.32600
C1396       C  0.65124070  0.87555721  0.87679228     0.01300
C1397       C  0.67483466  0.84509897  0.87996682    -0.24000
C1398       C  0.86131682  0.84530721  0.87614452    -0.28500
C1399       C  0.88460838  0.87597911  0.87456297     0.07000
C1400       C  0.86115875  0.90660708  0.87345114    -0.27200
H1401       H  0.80897185  0.79071343  0.88138457     0.11700
H1402       H  0.72771310  0.79065125  0.88347760     0.12900
H1403       H  0.80829194  0.96105562  0.86956376     0.11900
H1404       H  0.72698216  0.96082802  0.86933946     0.11200
H1405       H  0.65647779  0.92970895  0.87136418     0.16600
H1406       H  0.65695222  0.82144359  0.88225037     0.12500
H1407       H  0.87944346  0.82168260  0.87730592     0.15300
H1408       H  0.87916002  0.93027277  0.87201443     0.15100
C1409       C  0.21613413  0.68686322  0.88102756    -0.17800
C1410       C  0.26255702  0.68680341  0.88152984    -0.19900
C1411       C  0.28613734  0.65633792  0.87886911     0.20700
C1412       C  0.26270494  0.62561222  0.87577299    -0.02900
C1413       C  0.21588432  0.62562366  0.87587349    -0.05900
C1414       C  0.19250007  0.65643089  0.87823221     0.21000
C1415       C  0.19250953  0.59480660  0.87360306     0.19200
C1416       C  0.21605740  0.56437024  0.87070564    -0.17400
C1417       C  0.26242689  0.56440782  0.87000125    -0.19600
C1418       C  0.28602639  0.59485201  0.87258686     0.20600
C1419       C  0.33252249  0.59504493  0.87214887    -0.32600
C1420       C  0.35609478  0.62548006  0.87567806     0.01300
C1421       C  0.33269628  0.65602673  0.87920219    -0.24000
C1422       C  0.14593577  0.65621811  0.87777361    -0.28500
C1423       C  0.12253678  0.62555723  0.87596408     0.07000
C1424       C  0.14601218  0.59496557  0.87416629    -0.27200
H1425       H  0.19870961  0.71072187  0.88294904     0.11700
H1426       H  0.28002332  0.71061974  0.88384872     0.12900
H1427       H  0.19859362  0.54051404  0.86884407     0.11900
H1428       H  0.27984861  0.54057920  0.86760852     0.11200
H1429       H  0.35041432  0.57141255  0.86962804     0.16600
H1430       H  0.35074322  0.67959582  0.88168251     0.12500
H1431       H  0.12786141  0.67983693  0.87941596     0.15300
H1432       H  0.12801310  0.57130455  0.87251867     0.15100
C1433       C  0.76190806  0.59640694  0.93287474    -0.17800
C1434       C  0.71550491  0.59694499  0.93303469    -0.19900
C1435       C  0.69204404  0.61062932  0.90415810     0.20700
C1436       C  0.71555329  0.62407988  0.87486232    -0.02900
C1437       C  0.76237357  0.62392376  0.87491867    -0.05900
C1438       C  0.78563257  0.60980626  0.90397053     0.21000
C1439       C  0.78587078  0.63792689  0.84593994     0.19200
C1440       C  0.76241383  0.65152188  0.81700178    -0.17400
C1441       C  0.71601086  0.65129338  0.81673072    -0.19600
C1442       C  0.69228809  0.63771170  0.84552460     0.20600
C1443       C  0.64574193  0.63754770  0.84558035    -0.32600
C1444       C  0.62243897  0.62437222  0.87476396     0.01300
C1445       C  0.64551637  0.61108995  0.90399928    -0.24000
C1446       C  0.83218028  0.60945466  0.90364948    -0.28500
C1447       C  0.85574573  0.62379535  0.87509046     0.07000
C1448       C  0.83239112  0.63811244  0.84642032    -0.27200
H1449       H  0.77925873  0.58558469  0.95542851     0.11700
H1450       H  0.69795048  0.58653037  0.95570009     0.12900
H1451       H  0.77997240  0.66228544  0.79452353     0.11900
H1452       H  0.69866412  0.66186731  0.79404464     0.11200
H1453       H  0.62756954  0.64785916  0.82314430     0.16600
H1454       H  0.62716226  0.60094048  0.92642876     0.12500
H1455       H  0.85010281  0.59859820  0.92591268     0.15300
H1456       H  0.85048009  0.64899523  0.82424694     0.15100
C1457       C  0.27287257  0.81453704  0.62741988    -0.17800
C1458       C  0.22651698  0.81453068  0.62825944    -0.19900
C1459       C  0.20296159  0.84508616  0.62830039     0.20700
C1460       C  0.22630338  0.87598844  0.62773539    -0.02900
C1461       C  0.27308552  0.87599780  0.62754340    -0.05900
C1462       C  0.29641335  0.84509855  0.62704179     0.21000
C1463       C  0.29647955  0.90688889  0.62773544     0.19200
C1464       C  0.27289683  0.93744484  0.62764277    -0.17400
C1465       C  0.22649620  0.93743215  0.62718038    -0.19600
C1466       C  0.20292311  0.90686719  0.62721689     0.20600
C1467       C  0.15641188  0.90660657  0.62665086    -0.32600
C1468       C  0.13303635  0.87591518  0.62747491     0.01300
C1469       C  0.15648362  0.84528141  0.62865304    -0.24000
C1470       C  0.34286306  0.84529894  0.62616793    -0.28500
C1471       C  0.36632525  0.87592893  0.62676752     0.07000
C1472       C  0.34301104  0.90663542  0.62785367    -0.27200
H1473       H  0.29032439  0.79061731  0.62715815     0.11700
H1474       H  0.20907372  0.79060375  0.62863055     0.12900
H1475       H  0.29034591  0.96137058  0.62769964     0.11900
H1476       H  0.20903868  0.96134855  0.62686517     0.11200
H1477       H  0.13835742  0.93028116  0.62601780     0.16600
H1478       H  0.13850739  0.82156642  0.62907265     0.12500
H1479       H  0.36084528  0.82158422  0.62560476     0.15300
H1480       H  0.36110974  0.93029706  0.62808286     0.15100
C1481       C  0.77241197  0.93378831  0.60867834    -0.17800
C1482       C  0.72603737  0.93382560  0.60932607    -0.19900
C1483       C  0.70257494  0.90399293  0.61649549     0.20700
C1484       C  0.72602770  0.87374847  0.62292770    -0.02900
C1485       C  0.77284582  0.87384462  0.62288429    -0.05900
C1486       C  0.79610008  0.90400103  0.61558696     0.21000
C1487       C  0.79634006  0.84383435  0.63029137     0.19200
C1488       C  0.77284511  0.81390661  0.63706610    -0.17400
C1489       C  0.72642898  0.81367872  0.63650406    -0.19600
C1490       C  0.70271932  0.84345832  0.62954773     0.20600
C1491       C  0.65615302  0.84357314  0.62925878    -0.32600
C1492       C  0.63275422  0.87377639  0.62359738     0.01300
C1493       C  0.65609035  0.90388792  0.61743049    -0.24000
C1494       C  0.84261453  0.90391247  0.61556991    -0.28500
C1495       C  0.86626164  0.87425052  0.62347609     0.07000
C1496       C  0.84287940  0.84431249  0.63086139    -0.27200
H1497       H  0.78977159  0.95715421  0.60306429     0.11700
H1498       H  0.70850824  0.95721261  0.60420775     0.12900
H1499       H  0.79037841  0.79062936  0.64271057     0.11900
H1500       H  0.70906836  0.79023417  0.64170664     0.11200
H1501       H  0.63806898  0.82037830  0.63423144     0.16600
H1502       H  0.63795847  0.92712296  0.61277996     0.12500
H1503       H  0.86042426  0.92710308  0.61000586     0.15300
H1504       H  0.86091790  0.82129941  0.63673924     0.15100
loop_ 
_geom_bond_atom_site_label_1 
_geom_bond_atom_site_label_2 
_geom_bond_distance 
_geom_bond_site_symmetry_2 
_ccdc_geom_bond_type 
O1            V9   1.905       .  S
O1           C11   1.267       .  A
O2            V9   1.901       .  S
O2           C12   1.265       .  A
O3            V9   1.899       .  S
O3           C13   1.264       .  A
O4            V9   1.898       .  S
O4           C14   1.264       .  A
O5           V10   1.899       .  S
O5           C14   1.264       .  A
O6           V10   1.899       .  S
O6           C13   1.264       .  A
O7           V10   1.908       .  S
O7           C12   1.268       .  A
O8           V10   1.902       .  S
O8           C11   1.265       .  A
V9           V10   2.087       .  T
C11         C116   1.487       .  S
C12          C89   1.488       .  S
C13         C343   1.474       .  S
C14         C364   1.470       .  S
O15          V23   1.904       .  S
O15          C25   1.267       .  A
O16          V23   1.902       .  S
O16          C26   1.265       .  A
O17          V23   1.897   1_455  S
O17          C27   1.264       .  A
O18          V23   1.897       .  S
O18          C28   1.264       .  A
O19          V24   1.900       .  S
O19          C28   1.265       .  A
O20          V24   1.899   1_455  S
O20          C27   1.264       .  A
O21          V24   1.905       .  S
O21          C26   1.267       .  A
O22          V24   1.903       .  S
O22          C25   1.265       .  A
V23          V24   2.086       .  T
C25         C121   1.487       .  S
C26         C148   1.487       .  S
C27         C340   1.474       .  S
C28         C367   1.477       .  S
O29          V37   1.903       .  S
O29          C39   1.267       .  A
O30          V37   1.904       .  S
O30          C40   1.266       .  A
O31          V37   1.899       .  S
O31          C41   1.264       .  A
O32          V37   1.900       .  S
O32          C42   1.263       .  A
O33          V38   1.901       .  S
O33          C42   1.263       .  A
O34          V38   1.898       .  S
O34          C41   1.265       .  A
O35          V38   1.900       .  S
O35          C40   1.266       .  A
O36          V38   1.901       .  S
O36          C39   1.264       .  A
V37          V38   2.087       .  T
C39          C98   1.485       .  S
C40         C107   1.485       .  S
C41         C292   1.476       .  S
C42         C316   1.465       .  S
O43          V51   1.901   1_455  S
O43          C53   1.266   1_455  A
O44          V51   1.904       .  S
O44          C54   1.266       .  A
O45          V51   1.901   1_455  S
O45          C55   1.265       .  A
O46          V51   1.900       .  S
O46          C56   1.265       .  A
O47          V52   1.898       .  S
O47          C56   1.265       .  A
O48          V52   1.901   1_455  S
O48          C55   1.264       .  A
O49          V52   1.902   1_455  S
O49          C54   1.266   1_455  A
O50          V52   1.902       .  S
O50          C53   1.265       .  A
V51          V52   2.084       .  T
C53         C139   1.485       .  S
C54         C130   1.486       .  S
C55         C295   1.476       .  S
C56         C319   1.476       .  S
O57          V65   1.904       .  S
O57          C67   1.267       .  A
O58          V65   1.902       .  S
O58          C68   1.266       .  A
O59          V65   1.898       .  S
O59          C69   1.264       .  A
O60          V65   1.897       .  S
O60          C70   1.264       .  A
O61          V66   1.899       .  S
O61          C70   1.265       .  A
O62          V66   1.900       .  S
O62          C69   1.265       .  A
O63          V66   1.903       .  S
O63          C68   1.266       .  A
O64          V66   1.900       .  S
O64          C67   1.264       .  A
V65          V66   2.086       .  T
C67          C85   1.486       .  S
C68         C112   1.486       .  S
C69         C268   1.476       .  S
C70         C247   1.476       .  S
O71          V79   1.897       .  S
O71          C81   1.263       .  A
O72          V79   1.899   1_655  S
O72          C82   1.264       .  A
O73          V79   1.904       .  S
O73          C83   1.267       .  A
O74          V79   1.900       .  S
O74          C84   1.265       .  A
O75          V80   1.905       .  S
O75          C84   1.267       .  A
O76          V80   1.900       .  S
O76          C83   1.265       .  A
O77          V80   1.900   1_655  S
O77          C82   1.264       .  A
O78          V80   1.899       .  S
O78          C81   1.264       .  A
V79          V80   2.087       .  T
C81         C244   1.470       .  S
C82         C271   1.475       .  S
C83         C152   1.486       .  S
C84         C125   1.485       .  S
C85          C86   1.409       .  A
C85         C466   1.400       .  A
C86         C463   1.419       .  A
C86          H91   1.075       .  S
C87         C848   1.517       .  S
C87          C88   1.416   1_556  A
C87         C462   1.417       .  A
C88          C89   1.409       .  A
C88          H92   1.080       .  S
C89          C90   1.402   1_554  A
C90         C461   1.403       .  A
C90          H93   1.084       .  S
C94         C167   1.487       .  S
C94          C95   1.409       .  A
C94          C99   1.402       .  A
C95          C96   1.417       .  A
C95         H100   1.079       .  S
C96         C839   1.516   1_545  S
C96         C473   1.416   1_554  A
C97          C98   1.409       .  A
C97         C472   1.419       .  A
C97         H101   1.077       .  S
C98         C475   1.399       .  A
C99         C474   1.402   1_554  A
C99         H102   1.083       .  S
C103        C168   1.486       .  S
C103        C104   1.408       .  A
C103        C108   1.401       .  A
C104        C105   1.417       .  A
C104        H109   1.078       .  S
C105        C114   1.517       .  S
C105        C106   1.417       .  A
C106        C107   1.407       .  A
C106        H110   1.078       .  S
C107        C108   1.401       .  A
C108        H111   1.083       .  S
C112        C113   1.407       .  A
C112        C117   1.402       .  A
C113        C114   1.416       .  A
C113        H118   1.078       .  S
C114        C115   1.417       .  A
C115        C116   1.408       .  A
C115        H119   1.078       .  S
C116        C117   1.402       .  A
C117        H120   1.083       .  S
C121        C122   1.409       .  A
C121        C126   1.402       .  A
C122        C123   1.418   1_655  A
C122        H127   1.078       .  S
C123        C884   1.520       .  S
C123        C124   1.417       .  A
C124        C125   1.407       .  A
C124        H128   1.078       .  S
C125        C126   1.400   1_455  A
C126        H129   1.083       .  S
C130        C131   1.408       .  A
C130        C135   1.401   1_655  A
C131        C132   1.417   1_655  A
C131        H136   1.079       .  S
C132        C875   1.518   1_445  S
C132        C133   1.417       .  A
C133        C134   1.409       .  A
C133        H137   1.079       .  S
C134        C182   1.487       .  S
C134        C135   1.401       .  A
C135        H138   1.083       .  S
C139        C140   1.407       .  A
C139        C520   1.401   1_655  A
C140        C517   1.418   1_655  A
C140        H145   1.076       .  S
C141        C150   1.514   1_554  S
C141        C142   1.416   1_655  A
C141        C516   1.416   1_554  A
C142        C143   1.408       .  A
C142        H146   1.080       .  S
C143        C181   1.486       .  S
C143        C144   1.402   1_455  A
C144        C515   1.402   1_554  A
C144        H147   1.083       .  S
C148        C149   1.408       .  A
C148        C153   1.403   1_654  A
C149        C150   1.415   1_554  A
C149        H154   1.080       .  S
C150        C527   1.415   1_655  A
C151        C152   1.408       .  A
C151        C526   1.419       .  A
C151        H155   1.076       .  S
C152        C529   1.400       .  A
C153        C528   1.403       .  A
C153        H532   1.083       .  S
H156        C529   1.083       .  S
O157        V165   1.906       .  S
O157        C167   1.267       .  A
O158        V165   1.901       .  S
O158        C168   1.265       .  A
O159        V165   1.898       .  S
O159        C169   1.264       .  A
O160        V165   1.899       .  S
O160        C170   1.264       .  A
O161        V166   1.899       .  S
O161        C170   1.264       .  A
O162        V166   1.898       .  S
O162        C169   1.264       .  A
O163        V166   1.904       .  S
O163        C168   1.267       .  A
O164        V166   1.902       .  S
O164        C167   1.265       .  A
V165        V166   2.087       .  T
C169        C220   1.473       .  S
C170        C196   1.472       .  S
O171        V179   1.903       .  S
O171        C181   1.266       .  A
O172        V179   1.902       .  S
O172        C182   1.265       .  A
O173        V179   1.900   1_655  S
O173        C183   1.264       .  A
O174        V179   1.899       .  S
O174        C184   1.265       .  A
O175        V180   1.898       .  S
O175        C184   1.264       .  A
O176        V180   1.898   1_655  S
O176        C183   1.264       .  A
O177        V180   1.905       .  S
O177        C182   1.267       .  A
O178        V180   1.903       .  S
O178        C181   1.265       .  A
V179        V180   2.086       .  T
C183        C223   1.475       .  S
C184        C199   1.477       .  S
C185        C186   1.398       .  A
C185        C190   1.403       .  A
C185        H201   1.084       .  S
C186        C187   1.403       .  A
C186        H202   1.084       .  S
C187        C197   1.402       .  A
C187        C188   1.412       .  A
C188        C194   1.412       .  A
C188        C189   1.411       .  A
C189        C191   1.412       .  A
C189        C190   1.412       .  A
C190        C198   1.401       .  A
C191        C200   1.403       .  A
C191        C192   1.404       .  A
C192        C193   1.399       .  A
C192        H203   1.084       .  S
C193        C194   1.404       .  A
C193        H204   1.084       .  S
C194        C195   1.403       .  A
C195        C196   1.405       .  A
C195        H205   1.084       .  S
C196        C197   1.404       .  A
C197        H206   1.085       .  S
C198        C199   1.405       .  A
C198        H207   1.085       .  S
C199        C200   1.407       .  A
C200        H208   1.084       .  S
C209        C210   1.398       .  A
C209        C214   1.404       .  A
C209        H225   1.084       .  S
C210        C211   1.403       .  A
C210        H226   1.084       .  S
C211        C221   1.402       .  A
C211        C212   1.412       .  A
C212        C218   1.412       .  A
C212        C213   1.411       .  A
C213        C215   1.412       .  A
C213        C214   1.412       .  A
C214        C222   1.402       .  A
C215        C224   1.403       .  A
C215        C216   1.404       .  A
C216        C217   1.399       .  A
C216        H227   1.084       .  S
C217        C218   1.404       .  A
C217        H228   1.084       .  S
C218        C219   1.402       .  A
C219        C220   1.405       .  A
C219        H229   1.084       .  S
C220        C221   1.405       .  A
C221        H230   1.085       .  S
C222        C223   1.405       .  A
C222        H231   1.084       .  S
C223        C224   1.406       .  A
C224        H232   1.084       .  S
C233        C234   1.398       .  A
C233        C238   1.404       .  A
C233        H249   1.084       .  S
C234        C235   1.403       .  A
C234        H250   1.084       .  S
C235        C245   1.402       .  A
C235        C236   1.412       .  A
C236        C242   1.412       .  A
C236        C237   1.410       .  A
C237        C239   1.412       .  A
C237        C238   1.412       .  A
C238        C246   1.402       .  A
C239        C248   1.402       .  A
C239        C240   1.404       .  A
C240        C241   1.398       .  A
C240        H251   1.084       .  S
C241        C242   1.403       .  A
C241        H252   1.084       .  S
C242        C243   1.402       .  A
C243        C244   1.404       .  A
C243        H253   1.085       .  S
C244        C245   1.404       .  A
C245        H254   1.085       .  S
C246        C247   1.406       .  A
C246        H255   1.084       .  S
C247        C248   1.406       .  A
C248        H256   1.084       .  S
C257        C258   1.399       .  A
C257        C262   1.404       .  A
C257        H273   1.084       .  S
C258        C259   1.404       .  A
C258        H274   1.084       .  S
C259        C269   1.403       .  A
C259        C260   1.412       .  A
C260        C266   1.412       .  A
C260        C261   1.411       .  A
C261        C263   1.412       .  A
C261        C262   1.412       .  A
C262        C270   1.403       .  A
C263        C272   1.402       .  A
C263        C264   1.403       .  A
C264        C265   1.398       .  A
C264        H275   1.084       .  S
C265        C266   1.403       .  A
C265        H276   1.084       .  S
C266        C267   1.402       .  A
C267        C268   1.405       .  A
C267        H277   1.085       .  S
C268        C269   1.406       .  A
C269        H278   1.084       .  S
C270        C271   1.406       .  A
C270        H279   1.084       .  S
C271        C272   1.405       .  A
C272        H280   1.084       .  S
C281        C282   1.400       .  A
C281        C286   1.404       .  A
C281        H297   1.084       .  S
C282        C283   1.404       .  A
C282        H298   1.084       .  S
C283        C293   1.404       .  A
C283        C284   1.412       .  A
C284        C290   1.412       .  A
C284        C285   1.412       .  A
C285        C287   1.412       .  A
C285        C286   1.412       .  A
C286        C294   1.404       .  A
C287        C296   1.402       .  A
C287        C288   1.403       .  A
C288        C289   1.398       .  A
C288        H299   1.084       .  S
C289        C290   1.403       .  A
C289        H300   1.084       .  S
C290        C291   1.401       .  A
C291        C292   1.405       .  A
C291        H301   1.085       .  S
C292        C293   1.407       .  A
C293        H302   1.084       .  S
C294        C295   1.406       .  A
C294        H303   1.084       .  S
C295        C296   1.405       .  A
C296        H304   1.085       .  S
C305        C306   1.399       .  A
C305        C310   1.404       .  A
C305        H321   1.084       .  S
C306        C307   1.403       .  A
C306        H322   1.084       .  S
C307        C317   1.404       .  A
C307        C308   1.413       .  A
C308        C314   1.413       .  A
C308        C309   1.411       .  A
C309        C311   1.412       .  A
C309        C310   1.412       .  A
C310        C318   1.403       .  A
C311        C320   1.402       .  A
C311        C312   1.403       .  A
C312        C313   1.399       .  A
C312        H323   1.083       .  S
C313        C314   1.403       .  A
C313        H324   1.084       .  S
C314        C315   1.403       .  A
C315        C316   1.402       .  A
C315        H325   1.085       .  S
C316        C317   1.402       .  A
C317        H326   1.085       .  S
C318        C319   1.406       .  A
C318        H327   1.084       .  S
C319        C320   1.405       .  A
C320        H328   1.084       .  S
C329        C330   1.399       .  A
C329        C334   1.404       .  A
C329        H345   1.084       .  S
C330        C331   1.404       .  A
C330        H346   1.084       .  S
C331        C341   1.402       .  A
C331        C332   1.412       .  A
C332        C338   1.412       .  A
C332        C333   1.411       .  A
C333        C335   1.412       .  A
C333        C334   1.412       .  A
C334        C342   1.402       .  A
C335        C344   1.403       .  A
C335        C336   1.404       .  A
C336        C337   1.399       .  A
C336        H347   1.084       .  S
C337        C338   1.404       .  A
C337        H348   1.084       .  S
C338        C339   1.402       .  A
C339        C340   1.405       .  A
C339        H349   1.085       .  S
C340        C341   1.405       .  A
C341        H350   1.084       .  S
C342        C343   1.405       .  A
C342        H351   1.085       .  S
C343        C344   1.405       .  A
C344        H352   1.085       .  S
C353        C354   1.398       .  A
C353        C358   1.404       .  A
C353        H369   1.084       .  S
C354        C355   1.403       .  A
C354        H370   1.084       .  S
C355        C365   1.401       .  A
C355        C356   1.412       .  A
C356        C362   1.412       .  A
C356        C357   1.411       .  A
C357        C359   1.411       .  A
C357        C358   1.412       .  A
C358        C366   1.402       .  A
C359        C368   1.402       .  A
C359        C360   1.404       .  A
C360        C361   1.399       .  A
C360        H371   1.084       .  S
C361        C362   1.403       .  A
C361        H372   1.084       .  S
C362        C363   1.403       .  A
C363        C364   1.404       .  A
C363        H373   1.085       .  S
C364        C365   1.404       .  A
C365        H374   1.085       .  S
C366        C367   1.406       .  A
C366        H375   1.084       .  S
C367        C368   1.407       .  A
C368        H376   1.084       .  S
O377        V385   1.906       .  S
O377        C387   1.267       .  A
O378        V385   1.902       .  S
O378        C388   1.265       .  A
O379        V385   1.900       .  S
O379        C389   1.264       .  A
O380        V385   1.898       .  S
O380        C390   1.264       .  A
O381        V386   1.899       .  S
O381        C390   1.264       .  A
O382        V386   1.898       .  S
O382        C389   1.264       .  A
O383        V386   1.905       .  S
O383        C388   1.267       .  A
O384        V386   1.902       .  S
O384        C387   1.265       .  A
V385        V386   2.087       .  T
C387        C492   1.487       .  S
C388        C465   1.487       .  S
C389        C719   1.474       .  S
C390        C740   1.471       .  S
O391        V399   1.904       .  S
O391        C401   1.267       .  A
O392        V399   1.900   1_655  S
O392        C402   1.265   1_655  A
O393        V399   1.899       .  S
O393        C403   1.264       .  A
O394        V399   1.898   1_655  S
O394        C404   1.264       .  A
O395        V400   1.898   1_655  S
O395        C404   1.265       .  A
O396        V400   1.900       .  S
O396        C403   1.265       .  A
O397        V400   1.903       .  S
O397        C402   1.266       .  A
O398        V400   1.900       .  S
O398        C401   1.265       .  A
V399        V400   2.086       .  T
C401        C497   1.485       .  S
C402        C524   1.484       .  S
C403        C716   1.475       .  S
C404        C743   1.476       .  S
O405        V413   1.904       .  S
O405        C415   1.267       .  A
O406        V413   1.902       .  S
O406        C416   1.265       .  A
O407        V413   1.899       .  S
O407        C417   1.265       .  A
O408        V413   1.899       .  S
O408        C418   1.263       .  A
O409        V414   1.899       .  S
O409        C418   1.263       .  A
O410        V414   1.900       .  S
O410        C417   1.264       .  A
O411        V414   1.903       .  S
O411        C416   1.267       .  A
O412        V414   1.901       .  S
O412        C415   1.265       .  A
V413        V414   2.087       .  T
C415        C474   1.486       .  S
C416        C483   1.486       .  S
C417        C668   1.477       .  S
C418        C692   1.464       .  S
O419        V427   1.903       .  S
O419        C429   1.267       .  A
O420        V427   1.903       .  S
O420        C430   1.265       .  A
O421        V427   1.899   1_455  S
O421        C431   1.264       .  A
O422        V427   1.899       .  S
O422        C432   1.265       .  A
O423        V428   1.899       .  S
O423        C432   1.265       .  A
O424        V428   1.901   1_455  S
O424        C431   1.265       .  A
O425        V428   1.902       .  S
O425        C430   1.266       .  A
O426        V428   1.903       .  S
O426        C429   1.265       .  A
V427        V428   2.085       .  T
C429        C515   1.486       .  S
C430        C506   1.486       .  S
C431        C671   1.475       .  S
C432        C695   1.479       .  S
O433        V441   1.907       .  S
O433        C443   1.268       .  A
O434        V441   1.904       .  S
O434        C444   1.266       .  A
O435        V441   1.900       .  S
O435        C445   1.264       .  A
O436        V441   1.897       .  S
O436        C446   1.264       .  A
O437        V442   1.899       .  S
O437        C446   1.265       .  A
O438        V442   1.899       .  S
O438        C445   1.265       .  A
O439        V442   1.903       .  S
O439        C444   1.266       .  A
O440        V442   1.902       .  S
O440        C443   1.265       .  A
V441        V442   2.086       .  T
C443        C461   1.488       .  S
C444        C488   1.487       .  S
C445        C644   1.476       .  S
C446        C623   1.475       .  S
O447        V455   1.900       .  S
O447        C457   1.265       .  A
O448        V455   1.900   1_655  S
O448        C458   1.265       .  A
O449        V455   1.904       .  S
O449        C459   1.266       .  A
O450        V455   1.901       .  S
O450        C460   1.264       .  A
O451        V456   1.907       .  S
O451        C460   1.268       .  A
O452        V456   1.903       .  S
O452        C459   1.266       .  A
O453        V456   1.897   1_655  S
O453        C458   1.264       .  A
O454        V456   1.898       .  S
O454        C457   1.264       .  A
V455        V456   2.087       .  T
C457        C620   1.473       .  S
C458        C647   1.473       .  S
C459        C528   1.487       .  S
C460        C501   1.488       .  S
C461        C462   1.410       .  A
C462        H467   1.080       .  S
C463       C1224   1.527       .  S
C463        C464   1.420       .  A
C464        C465   1.409       .  A
C464        H468   1.075       .  S
C465        C466   1.400       .  A
C466        H469   1.084       .  S
C470        C543   1.485       .  S
C470        C471   1.407       .  A
C470        C475   1.399       .  A
C471        C472   1.418       .  A
C471        H476   1.077       .  S
C472       C1215   1.523   1_545  S
C473        C474   1.408       .  A
C473        H477   1.079       .  S
C475        H478   1.083       .  S
C479        C544   1.485       .  S
C479        C480   1.408       .  A
C479        C484   1.401       .  A
C480        C481   1.416       .  A
C480        H485   1.079       .  S
C481        C490   1.518       .  S
C481        C482   1.417       .  A
C482        C483   1.408       .  A
C482        H486   1.079       .  S
C483        C484   1.401       .  A
C484        H487   1.083       .  S
C488        C489   1.408       .  A
C488        C493   1.402       .  A
C489        C490   1.417       .  A
C489        H494   1.078       .  S
C490        C491   1.418       .  A
C491        C492   1.409       .  A
C491        H495   1.079       .  S
C492        C493   1.401       .  A
C493        H496   1.083       .  S
C497        C498   1.407       .  A
C497        C502   1.401       .  A
C498        C499   1.417       .  A
C498        H503   1.078   1_455  S
C499       C1260   1.521       .  S
C499        C500   1.419       .  A
C500        C501   1.411       .  A
C500        H504   1.078       .  S
C501        C502   1.401       .  A
C502        H505   1.083       .  S
C506        C507   1.408       .  A
C506        C511   1.402       .  A
C507        C508   1.416   1_655  A
C507        H512   1.079       .  S
C508       C1251   1.517   1_545  S
C508        C509   1.417       .  A
C509        C510   1.408       .  A
C509        H513   1.079       .  S
C510        C558   1.487       .  S
C510        C511   1.401   1_455  A
C511        H514   1.083       .  S
C515        C516   1.408       .  A
C516        H521   1.080       .  S
C517        C526   1.524       .  S
C517        C518   1.420       .  A
C518        C519   1.408       .  A
C518        H522   1.076       .  S
C519        C557   1.487       .  S
C519        C520   1.400       .  A
C520        H523   1.084   1_455  S
C524        C525   1.407   1_455  A
C524        C529   1.400       .  A
C525        C526   1.417   1_655  A
C525        H530   1.075       .  S
C527        C528   1.408       .  A
C527        H531   1.080       .  S
O533        V541   1.903       .  S
O533        C543   1.266       .  A
O534        V541   1.899       .  S
O534        C544   1.264       .  A
O535        V541   1.897       .  S
O535        C545   1.264       .  A
O536        V541   1.899       .  S
O536        C546   1.264       .  A
O537        V542   1.900       .  S
O537        C546   1.264       .  A
O538        V542   1.898       .  S
O538        C545   1.264       .  A
O539        V542   1.905       .  S
O539        C544   1.267       .  A
O540        V542   1.900       .  S
O540        C543   1.265       .  A
V541        V542   2.087       .  T
C545        C596   1.472       .  S
C546        C572   1.472       .  S
O547        V555   1.904       .  S
O547        C557   1.266       .  A
O548        V555   1.902       .  S
O548        C558   1.265       .  A
O549        V555   1.899   1_655  S
O549        C559   1.265       .  A
O550        V555   1.897       .  S
O550        C560   1.264       .  A
O551        V556   1.898       .  S
O551        C560   1.265       .  A
O552        V556   1.901   1_655  S
O552        C559   1.265       .  A
O553        V556   1.905       .  S
O553        C558   1.267       .  A
O554        V556   1.902       .  S
O554        C557   1.265       .  A
V555        V556   2.086       .  T
C559        C599   1.476       .  S
C560        C575   1.476       .  S
C561        C562   1.399       .  A
C561        C566   1.404       .  A
C561        H577   1.084       .  S
C562        C563   1.404       .  A
C562        H578   1.084       .  S
C563        C573   1.403       .  A
C563        C564   1.412       .  A
C564        C570   1.412       .  A
C564        C565   1.411       .  A
C565        C567   1.412       .  A
C565        C566   1.412       .  A
C566        C574   1.402       .  A
C567        C576   1.402       .  A
C567        C568   1.404       .  A
C568        C569   1.398       .  A
C568        H579   1.084       .  S
C569        C570   1.403       .  A
C569        H580   1.084       .  S
C570        C571   1.402       .  A
C571        C572   1.404       .  A
C571        H581   1.085       .  S
C572        C573   1.404       .  A
C573        H582   1.085       .  S
C574        C575   1.406       .  A
C574        H583   1.084       .  S
C575        C576   1.406       .  A
C576        H584   1.084       .  S
C585        C586   1.399       .  A
C585        C590   1.404       .  A
C585        H601   1.084       .  S
C586        C587   1.404       .  A
C586        H602   1.084       .  S
C587        C597   1.402       .  A
C587        C588   1.412       .  A
C588        C594   1.412       .  A
C588        C589   1.411       .  A
C589        C591   1.412       .  A
C589        C590   1.412       .  A
C590        C598   1.403       .  A
C591        C600   1.402       .  A
C591        C592   1.404       .  A
C592        C593   1.398       .  A
C592        H603   1.084       .  S
C593        C594   1.403       .  A
C593        H604   1.084       .  S
C594        C595   1.402       .  A
C595        C596   1.405       .  A
C595        H605   1.085       .  S
C596        C597   1.405       .  A
C597        H606   1.085       .  S
C598        C599   1.406       .  A
C598        H607   1.084       .  S
C599        C600   1.406       .  A
C600        H608   1.085       .  S
C609        C610   1.399       .  A
C609        C614   1.404       .  A
C609        H625   1.084       .  S
C610        C611   1.404       .  A
C610        H626   1.084       .  S
C611        C621   1.403       .  A
C611        C612   1.412       .  A
C612        C618   1.412       .  A
C612        C613   1.411       .  A
C613        C615   1.412       .  A
C613        C614   1.412       .  A
C614        C622   1.402       .  A
C615        C624   1.402       .  A
C615        C616   1.403       .  A
C616        C617   1.398       .  A
C616        H627   1.084       .  S
C617        C618   1.403       .  A
C617        H628   1.084       .  S
C618        C619   1.402       .  A
C619        C620   1.404       .  A
C619        H629   1.085       .  S
C620        C621   1.405       .  A
C621        H630   1.084       .  S
C622        C623   1.406       .  A
C622        H631   1.084       .  S
C623        C624   1.405       .  A
C624        H632   1.084       .  S
C633        C634   1.399       .  A
C633        C638   1.404       .  A
C633        H649   1.084       .  S
C634        C635   1.404       .  A
C634        H650   1.084       .  S
C635        C645   1.403       .  A
C635        C636   1.412       .  A
C636        C642   1.412       .  A
C636        C637   1.411       .  A
C637        C639   1.412       .  A
C637        C638   1.412       .  A
C638        C646   1.402       .  A
C639        C648   1.402       .  A
C639        C640   1.403       .  A
C640        C641   1.398       .  A
C640        H651   1.084       .  S
C641        C642   1.403       .  A
C641        H652   1.084       .  S
C642        C643   1.402       .  A
C643        C644   1.405       .  A
C643        H653   1.084       .  S
C644        C645   1.406       .  A
C645        H654   1.084       .  S
C646        C647   1.405       .  A
C646        H655   1.084       .  S
C647        C648   1.404       .  A
C648        H656   1.084       .  S
C657        C658   1.398       .  A
C657        C662   1.403       .  A
C657        H673   1.084       .  S
C658        C659   1.404       .  A
C658        H674   1.084       .  S
C659        C669   1.402       .  A
C659        C660   1.412       .  A
C660        C666   1.412       .  A
C660        C661   1.411       .  A
C661        C663   1.412       .  A
C661        C662   1.412       .  A
C662        C670   1.403       .  A
C663        C672   1.403       .  A
C663        C664   1.404       .  A
C664        C665   1.399       .  A
C664        H675   1.084       .  S
C665        C666   1.404       .  A
C665        H676   1.084       .  S
C666        C667   1.403       .  A
C667        C668   1.406       .  A
C667        H677   1.084       .  S
C668        C669   1.406       .  A
C669        H678   1.085       .  S
C670        C671   1.405       .  A
C670        H679   1.084       .  S
C671        C672   1.406       .  A
C672        H680   1.084       .  S
C681        C682   1.399       .  A
C681        C686   1.404       .  A
C681        H697   1.084       .  S
C682        C683   1.403       .  A
C682        H698   1.084       .  S
C683        C693   1.402       .  A
C683        C684   1.413       .  A
C684        C690   1.413       .  A
C684        C685   1.411       .  A
C685        C687   1.411       .  A
C685        C686   1.412       .  A
C686        C694   1.403       .  A
C687        C696   1.402       .  A
C687        C688   1.404       .  A
C688        C689   1.399       .  A
C688        H699   1.084       .  S
C689        C690   1.403       .  A
C689        H700   1.084       .  S
C690        C691   1.403       .  A
C691        C692   1.402       .  A
C691        H701   1.085       .  S
C692        C693   1.402       .  A
C693        H702   1.085       .  S
C694        C695   1.407       .  A
C694        H703   1.084       .  S
C695        C696   1.407       .  A
C696        H704   1.084       .  S
C705        C706   1.399       .  A
C705        C710   1.404       .  A
C705        H721   1.084       .  S
C706        C707   1.404       .  A
C706        H722   1.084       .  S
C707        C717   1.403       .  A
C707        C708   1.412       .  A
C708        C714   1.412       .  A
C708        C709   1.411       .  A
C709        C711   1.412       .  A
C709        C710   1.412       .  A
C710        C718   1.402       .  A
C711        C720   1.403       .  A
C711        C712   1.404       .  A
C712        C713   1.399       .  A
C712        H723   1.084       .  S
C713        C714   1.404       .  A
C713        H724   1.084       .  S
C714        C715   1.402       .  A
C715        C716   1.405       .  A
C715        H725   1.085       .  S
C716        C717   1.406       .  A
C717        H726   1.085       .  S
C718        C719   1.405       .  A
C718        H727   1.085       .  S
C719        C720   1.405       .  A
C720        H728   1.084       .  S
C729        C730   1.398       .  A
C729        C734   1.403       .  A
C729        H745   1.084       .  S
C730        C731   1.403       .  A
C730        H746   1.084       .  S
C731        C741   1.402       .  A
C731        C732   1.412       .  A
C732        C738   1.412       .  A
C732        C733   1.411       .  A
C733        C735   1.412       .  A
C733        C734   1.412       .  A
C734        C742   1.402       .  A
C735        C744   1.402       .  A
C735        C736   1.404       .  A
C736        C737   1.399       .  A
C736        H747   1.084       .  S
C737        C738   1.404       .  A
C737        H748   1.084       .  S
C738        C739   1.403       .  A
C739        C740   1.404       .  A
C739        H749   1.085       .  S
C740        C741   1.404       .  A
C741        H750   1.085       .  S
C742        C743   1.406       .  A
C742        H751   1.084       .  S
C743        C744   1.406       .  A
C744        H752   1.084       .  S
O753        V761   1.905       .  S
O753        C763   1.267       .  A
O754        V761   1.902       .  S
O754        C764   1.265       .  A
O755        V761   1.900       .  S
O755        C765   1.264       .  A
O756        V761   1.898       .  S
O756        C766   1.264       .  A
O757        V762   1.899       .  S
O757        C766   1.264       .  A
O758        V762   1.899       .  S
O758        C765   1.265       .  A
O759        V762   1.906       .  S
O759        C764   1.267       .  A
O760        V762   1.902       .  S
O760        C763   1.265       .  A
V761        V762   2.087       .  T
C763        C868   1.487       .  S
C764        C841   1.487       .  S
C765       C1095   1.474       .  S
C766       C1116   1.471       .  S
O767        V775   1.904       .  S
O767        C777   1.267       .  A
O768        V775   1.901       .  S
O768        C778   1.265       .  A
O769        V775   1.898   1_455  S
O769        C779   1.264       .  A
O770        V775   1.899       .  S
O770        C780   1.264       .  A
O771        V776   1.899       .  S
O771        C780   1.265       .  A
O772        V776   1.899   1_455  S
O772        C779   1.264       .  A
O773        V776   1.906       .  S
O773        C778   1.267       .  A
O774        V776   1.904       .  S
O774        C777   1.266       .  A
V775        V776   2.086       .  T
C777        C873   1.488       .  S
C778        C900   1.487       .  S
C779       C1092   1.474       .  S
C780       C1119   1.477       .  S
O781        V789   1.906       .  S
O781        C791   1.268       .  A
O782        V789   1.903       .  S
O782        C792   1.266       .  A
O783        V789   1.899       .  S
O783        C793   1.264       .  A
O784        V789   1.899       .  S
O784        C794   1.263       .  A
O785        V790   1.901       .  S
O785        C794   1.263       .  A
O786        V790   1.900       .  S
O786        C793   1.265       .  A
O787        V790   1.901       .  S
O787        C792   1.266       .  A
O788        V790   1.900       .  S
O788        C791   1.264       .  A
V789        V790   2.087       .  T
C791        C850   1.487       .  S
C792        C859   1.485       .  S
C793       C1044   1.474       .  S
C794       C1068   1.465       .  S
O795        V803   1.904       .  S
O795        C805   1.267       .  A
O796        V803   1.906       .  S
O796        C806   1.266       .  A
O797        V803   1.902       .  S
O797        C807   1.265       .  A
O798        V803   1.900   1_655  S
O798        C808   1.265       .  A
O799        V804   1.898   1_655  S
O799        C808   1.265       .  A
O800        V804   1.899       .  S
O800        C807   1.264       .  A
O801        V804   1.902       .  S
O801        C806   1.266       .  A
O802        V804   1.902       .  S
O802        C805   1.265       .  A
V803        V804   2.085       .  T
C805        C891   1.487       .  S
C806        C882   1.488       .  S
C807       C1047   1.477       .  S
C808       C1071   1.477       .  S
O809        V817   1.905       .  S
O809        C819   1.267       .  A
O810        V817   1.902       .  S
O810        C820   1.265       .  A
O811        V817   1.898       .  S
O811        C821   1.264       .  A
O812        V817   1.900       .  S
O812        C822   1.265       .  A
O813        V818   1.899       .  S
O813        C822   1.265       .  A
O814        V818   1.898       .  S
O814        C821   1.264       .  A
O815        V818   1.902       .  S
O815        C820   1.266       .  A
O816        V818   1.900       .  S
O816        C819   1.265       .  A
V817        V818   2.086       .  T
C819        C837   1.486       .  S
C820        C864   1.485       .  S
C821       C1020   1.474       .  S
C822        C999   1.478       .  S
O823        V831   1.899       .  S
O823        C833   1.264       .  A
O824        V831   1.899   1_655  S
O824        C834   1.264       .  A
O825        V831   1.907       .  S
O825        C835   1.267       .  A
O826        V831   1.902       .  S
O826        C836   1.265       .  A
O827        V832   1.907       .  S
O827        C836   1.267       .  A
O828        V832   1.901       .  S
O828        C835   1.265       .  A
O829        V832   1.897   1_655  S
O829        C834   1.264       .  A
O830        V832   1.900       .  S
O830        C833   1.264       .  A
V831        V832   2.087       .  T
C833        C996   1.472       .  S
C834       C1023   1.472       .  S
C835        C904   1.488       .  S
C836        C877   1.488       .  S
C837        C838   1.409       .  A
C837       C1218   1.401       .  A
C838       C1215   1.418       .  A
C838        H843   1.077       .  S
C839       C1214   1.417   1_554  A
C839        C840   1.416       .  A
C840        C841   1.408       .  A
C840        H844   1.079       .  S
C841        C842   1.402       .  A
C842       C1213   1.403   1_554  A
C842        H845   1.083       .  S
C846        C919   1.488       .  S
C846        C847   1.409       .  A
C846        C851   1.401   1_554  A
C847        C848   1.417   1_554  A
C847        H852   1.079       .  S
C848       C1225   1.417       .  A
C849       C1224   1.420       .  A
C849        C850   1.409       .  A
C849        H853   1.075       .  S
C850       C1227   1.400       .  A
C851       C1226   1.402       .  A
C851        H854   1.083       .  S
C855        C920   1.487       .  S
C855        C856   1.410       .  A
C855        C860   1.402       .  A
C856        C857   1.418       .  A
C856        H861   1.078       .  S
C857        C866   1.520       .  S
C857        C858   1.417       .  A
C858        C859   1.406       .  A
C858        H862   1.078       .  S
C859        C860   1.401       .  A
C860        H863   1.083       .  S
C864        C865   1.406       .  A
C864        C869   1.401       .  A
C865        C866   1.417       .  A
C865        H870   1.078       .  S
C866        C867   1.418       .  A
C867        C868   1.410       .  A
C867        H871   1.078       .  S
C868        C869   1.401       .  A
C869        H872   1.083       .  S
C873        C874   1.409       .  A
C873        C878   1.403       .  A
C874        C875   1.417       .  A
C874        H879   1.079       .  S
C875        C876   1.417   1_655  A
C876        C877   1.408       .  A
C876        H880   1.079       .  S
C877        C878   1.402   1_455  A
C878        H881   1.083       .  S
C882        C883   1.407       .  A
C882        C887   1.403       .  A
C883        C884   1.418       .  A
C883        H888   1.078   1_455  S
C884        C885   1.418       .  A
C885        C886   1.409       .  A
C885        H889   1.078       .  S
C886        C934   1.489       .  S
C886        C887   1.402       .  A
C887        H890   1.083       .  S
C891        C892   1.408       .  A
C891       C1272   1.400       .  A
C892       C1269   1.419       .  A
C892        H897   1.075       .  S
C893        C902   1.516       .  S
C893       C1268   1.416       .  A
C893        C894   1.417   1_656  A
C894        C895   1.408       .  A
C894        H898   1.079       .  S
C895        C933   1.487       .  S
C895        C896   1.401   1_455  A
C896       C1267   1.402   1_554  A
C896        H899   1.083       .  S
C900        C901   1.408       .  A
C900        C905   1.402   1_654  A
C901        C902   1.415   1_554  A
C901        H906   1.080       .  S
C902       C1279   1.417   1_655  A
C903       C1278   1.420       .  A
C903        C904   1.410       .  A
C903        H907   1.075   1_455  S
C904       C1281   1.401       .  A
C905       C1280   1.403       .  A
C905       H1284   1.084       .  S
H908       C1281   1.084       .  S
O909        V917   1.905       .  S
O909        C919   1.267       .  A
O910        V917   1.901       .  S
O910        C920   1.265       .  A
O911        V917   1.897       .  S
O911        C921   1.264       .  A
O912        V917   1.898       .  S
O912        C922   1.264       .  A
O913        V918   1.900       .  S
O913        C922   1.264       .  A
O914        V918   1.900       .  S
O914        C921   1.264       .  A
O915        V918   1.906       .  S
O915        C920   1.267       .  A
O916        V918   1.903       .  S
O916        C919   1.265       .  A
V917        V918   2.087       .  T
C921        C972   1.473       .  S
C922        C948   1.472       .  S
O923        V931   1.905       .  S
O923        C933   1.267       .  A
O924        V931   1.904       .  S
O924        C934   1.265       .  A
O925        V931   1.898   1_655  S
O925        C935   1.264       .  A
O926        V931   1.897       .  S
O926        C936   1.264       .  A
O927        V932   1.900       .  S
O927        C936   1.265       .  A
O928        V932   1.901   1_655  S
O928        C935   1.265       .  A
O929        V932   1.906       .  S
O929        C934   1.267       .  A
O930        V932   1.904       .  S
O930        C933   1.265       .  A
V931        V932   2.086       .  T
C935        C975   1.475       .  S
C936        C951   1.477       .  S
C937        C938   1.398       .  A
C937        C942   1.403       .  A
C937        H953   1.084       .  S
C938        C939   1.403       .  A
C938        H954   1.084       .  S
C939        C949   1.402       .  A
C939        C940   1.412       .  A
C940        C946   1.412       .  A
C940        C941   1.411       .  A
C941        C943   1.412       .  A
C941        C942   1.411       .  A
C942        C950   1.401       .  A
C943        C952   1.403       .  A
C943        C944   1.404       .  A
C944        C945   1.399       .  A
C944        H955   1.084       .  S
C945        C946   1.404       .  A
C945        H956   1.084       .  S
C946        C947   1.403       .  A
C947        C948   1.405       .  A
C947        H957   1.084       .  S
C948        C949   1.404       .  A
C949        H958   1.085       .  S
C950        C951   1.406       .  A
C950        H959   1.084       .  S
C951        C952   1.407       .  A
C952        H960   1.084       .  S
C961        C962   1.398       .  A
C961        C966   1.403       .  A
C961        H977   1.084       .  S
C962        C963   1.403       .  A
C962        H978   1.084       .  S
C963        C973   1.401       .  A
C963        C964   1.412       .  A
C964        C970   1.412       .  A
C964        C965   1.411       .  A
C965        C967   1.412       .  A
C965        C966   1.412       .  A
C966        C974   1.402       .  A
C967        C976   1.403       .  A
C967        C968   1.404       .  A
C968        C969   1.399       .  A
C968        H979   1.084       .  S
C969        C970   1.404       .  A
C969        H980   1.084       .  S
C970        C971   1.403       .  A
C971        C972   1.405       .  A
C971        H981   1.084       .  S
C972        C973   1.405       .  A
C973        H982   1.085       .  S
C974        C975   1.405       .  A
C974        H983   1.084       .  S
C975        C976   1.406       .  A
C976        H984   1.084       .  S
C985        C986   1.399       .  A
C985        C990   1.404       .  A
C985       H1001   1.084       .  S
C986        C987   1.404       .  A
C986       H1002   1.084       .  S
C987        C997   1.403       .  A
C987        C988   1.412       .  A
C988        C994   1.412       .  A
C988        C989   1.411       .  A
C989        C991   1.412       .  A
C989        C990   1.412       .  A
C990        C998   1.403       .  A
C991       C1000   1.402       .  A
C991        C992   1.404       .  A
C992        C993   1.398       .  A
C992       H1003   1.084       .  S
C993        C994   1.403       .  A
C993       H1004   1.084       .  S
C994        C995   1.402       .  A
C995        C996   1.404       .  A
C995       H1005   1.084       .  S
C996        C997   1.405       .  A
C997       H1006   1.085       .  S
C998        C999   1.407       .  A
C998       H1007   1.084       .  S
C999       C1000   1.406       .  A
C1000      H1008   1.084       .  S
C1009      C1010   1.398       .  A
C1009      C1014   1.403       .  A
C1009      H1025   1.084       .  S
C1010      C1011   1.403       .  A
C1010      H1026   1.084       .  S
C1011      C1021   1.402       .  A
C1011      C1012   1.412       .  A
C1012      C1018   1.412       .  A
C1012      C1013   1.410       .  A
C1013      C1015   1.412       .  A
C1013      C1014   1.412       .  A
C1014      C1022   1.401       .  A
C1015      C1024   1.402       .  A
C1015      C1016   1.403       .  A
C1016      C1017   1.398       .  A
C1016      H1027   1.084       .  S
C1017      C1018   1.403       .  A
C1017      H1028   1.084       .  S
C1018      C1019   1.402       .  A
C1019      C1020   1.405       .  A
C1019      H1029   1.085       .  S
C1020      C1021   1.405       .  A
C1021      H1030   1.084       .  S
C1022      C1023   1.405       .  A
C1022      H1031   1.085       .  S
C1023      C1024   1.405       .  A
C1024      H1032   1.085       .  S
C1033      C1034   1.399       .  A
C1033      C1038   1.404       .  A
C1033      H1049   1.084       .  S
C1034      C1035   1.404       .  A
C1034      H1050   1.084       .  S
C1035      C1045   1.403       .  A
C1035      C1036   1.412       .  A
C1036      C1042   1.412       .  A
C1036      C1037   1.411       .  A
C1037      C1039   1.412       .  A
C1037      C1038   1.411       .  A
C1038      C1046   1.403       .  A
C1039      C1048   1.403       .  A
C1039      C1040   1.404       .  A
C1040      C1041   1.398       .  A
C1040      H1051   1.084       .  S
C1041      C1042   1.403       .  A
C1041      H1052   1.084       .  S
C1042      C1043   1.402       .  A
C1043      C1044   1.405       .  A
C1043      H1053   1.085       .  S
C1044      C1045   1.406       .  A
C1045      H1054   1.084       .  S
C1046      C1047   1.407       .  A
C1046      H1055   1.084       .  S
C1047      C1048   1.406       .  A
C1048      H1056   1.084       .  S
C1057      C1058   1.399       .  A
C1057      C1062   1.404       .  A
C1057      H1073   1.084       .  S
C1058      C1059   1.403       .  A
C1058      H1074   1.084       .  S
C1059      C1069   1.403       .  A
C1059      C1060   1.412       .  A
C1060      C1066   1.413       .  A
C1060      C1061   1.411       .  A
C1061      C1063   1.411       .  A
C1061      C1062   1.412       .  A
C1062      C1070   1.403       .  A
C1063      C1072   1.402       .  A
C1063      C1064   1.404       .  A
C1064      C1065   1.399       .  A
C1064      H1075   1.084       .  S
C1065      C1066   1.403       .  A
C1065      H1076   1.084       .  S
C1066      C1067   1.403       .  A
C1067      C1068   1.402       .  A
C1067      H1077   1.085       .  S
C1068      C1069   1.402       .  A
C1069      H1078   1.085       .  S
C1070      C1071   1.406       .  A
C1070      H1079   1.084       .  S
C1071      C1072   1.406       .  A
C1072      H1080   1.084       .  S
C1081      C1082   1.398       .  A
C1081      C1086   1.403       .  A
C1081      H1097   1.084       .  S
C1082      C1083   1.403       .  A
C1082      H1098   1.084       .  S
C1083      C1093   1.401       .  A
C1083      C1084   1.412       .  A
C1084      C1090   1.412       .  A
C1084      C1085   1.411       .  A
C1085      C1087   1.412       .  A
C1085      C1086   1.412       .  A
C1086      C1094   1.401       .  A
C1087      C1096   1.404       .  A
C1087      C1088   1.404       .  A
C1088      C1089   1.400       .  A
C1088      H1099   1.084       .  S
C1089      C1090   1.404       .  A
C1089      H1100   1.084       .  S
C1090      C1091   1.403       .  A
C1091      C1092   1.406       .  A
C1091      H1101   1.084       .  S
C1092      C1093   1.405       .  A
C1093      H1102   1.085       .  S
C1094      C1095   1.405       .  A
C1094      H1103   1.085       .  S
C1095      C1096   1.406       .  A
C1096      H1104   1.084       .  S
C1105      C1106   1.398       .  A
C1105      C1110   1.403       .  A
C1105      H1121   1.084       .  S
C1106      C1107   1.403       .  A
C1106      H1122   1.084       .  S
C1107      C1117   1.401       .  A
C1107      C1108   1.412       .  A
C1108      C1114   1.412       .  A
C1108      C1109   1.411       .  A
C1109      C1111   1.412       .  A
C1109      C1110   1.412       .  A
C1110      C1118   1.401       .  A
C1111      C1120   1.403       .  A
C1111      C1112   1.404       .  A
C1112      C1113   1.399       .  A
C1112      H1123   1.084       .  S
C1113      C1114   1.404       .  A
C1113      H1124   1.084       .  S
C1114      C1115   1.403       .  A
C1115      C1116   1.405       .  A
C1115      H1125   1.085       .  S
C1116      C1117   1.404       .  A
C1117      H1126   1.085       .  S
C1118      C1119   1.406       .  A
C1118      H1127   1.085       .  S
C1119      C1120   1.407       .  A
C1120      H1128   1.084       .  S
O1129      V1137   1.906       .  S
O1129      C1139   1.267       .  A
O1130      V1137   1.901       .  S
O1130      C1140   1.265       .  A
O1131      V1137   1.899       .  S
O1131      C1141   1.264       .  A
O1132      V1137   1.899       .  S
O1132      C1142   1.264       .  A
O1133      V1138   1.900       .  S
O1133      C1142   1.264       .  A
O1134      V1138   1.897       .  S
O1134      C1141   1.264       .  A
O1135      V1138   1.905       .  S
O1135      C1140   1.267       .  A
O1136      V1138   1.901       .  S
O1136      C1139   1.265       .  A
V1137      V1138   2.086       .  T
C1139      C1244   1.487       .  S
C1140      C1217   1.486       .  S
C1141      C1471   1.473       .  S
C1142      C1492   1.472       .  S
O1143      V1151   1.904       .  S
O1143      C1153   1.267       .  A
O1144      V1151   1.901   1_455  S
O1144      C1154   1.265       .  A
O1145      V1151   1.897   1_455  S
O1145      C1155   1.264       .  A
O1146      V1151   1.899       .  S
O1146      C1156   1.265       .  A
O1147      V1152   1.900       .  S
O1147      C1156   1.265       .  A
O1148      V1152   1.899   1_455  S
O1148      C1155   1.264       .  A
O1149      V1152   1.904   1_455  S
O1149      C1154   1.266       .  A
O1150      V1152   1.901       .  S
O1150      C1153   1.265       .  A
V1151      V1152   2.086       .  T
C1153      C1249   1.485   1_655  S
C1154      C1276   1.486       .  S
C1155      C1468   1.474       .  S
C1156      C1495   1.479       .  S
O1157      V1165   1.904       .  S
O1157      C1167   1.267       .  A
O1158      V1165   1.905       .  S
O1158      C1168   1.266       .  A
O1159      V1165   1.900       .  S
O1159      C1169   1.264       .  A
O1160      V1165   1.899       .  S
O1160      C1170   1.263       .  A
O1161      V1166   1.900       .  S
O1161      C1170   1.263       .  A
O1162      V1166   1.899       .  S
O1162      C1169   1.265       .  A
O1163      V1166   1.901       .  S
O1163      C1168   1.266       .  A
O1164      V1166   1.904       .  S
O1164      C1167   1.265       .  A
V1165      V1166   2.086       .  T
C1167      C1226   1.488       .  S
C1168      C1235   1.486       .  S
C1169      C1420   1.477       .  S
C1170      C1444   1.464       .  S
O1171      V1179   1.903       .  S
O1171      C1181   1.267       .  A
O1172      V1179   1.907       .  S
O1172      C1182   1.266       .  A
O1173      V1179   1.899   1_455  S
O1173      C1183   1.265       .  A
O1174      V1179   1.901       .  S
O1174      C1184   1.265       .  A
O1175      V1180   1.900       .  S
O1175      C1184   1.265       .  A
O1176      V1180   1.901   1_455  S
O1176      C1183   1.265       .  A
O1177      V1180   1.902       .  S
O1177      C1182   1.266       .  A
O1178      V1180   1.904       .  S
O1178      C1181   1.265       .  A
V1179      V1180   2.084       .  T
C1181      C1267   1.487       .  S
C1182      C1258   1.488       .  S
C1183      C1423   1.475       .  S
C1184      C1447   1.476       .  S
O1185      V1193   1.906       .  S
O1185      C1195   1.267       .  A
O1186      V1193   1.904       .  S
O1186      C1196   1.265       .  A
O1187      V1193   1.900       .  S
O1187      C1197   1.265       .  A
O1188      V1193   1.898       .  S
O1188      C1198   1.264       .  A
O1189      V1194   1.898       .  S
O1189      C1198   1.264       .  A
O1190      V1194   1.899       .  S
O1190      C1197   1.264       .  A
O1191      V1194   1.906       .  S
O1191      C1196   1.267       .  A
O1192      V1194   1.904       .  S
O1192      C1195   1.265       .  A
V1193      V1194   2.086       .  T
C1195      C1213   1.488       .  S
C1196      C1240   1.488       .  S
C1197      C1396   1.476       .  S
C1198      C1375   1.475       .  S
O1199      V1207   1.900       .  S
O1199      C1209   1.264       .  A
O1200      V1207   1.898   1_655  S
O1200      C1210   1.264       .  A
O1201      V1207   1.906       .  S
O1201      C1211   1.268       .  A
O1202      V1207   1.902       .  S
O1202      C1212   1.265       .  A
O1203      V1208   1.905       .  S
O1203      C1212   1.267       .  A
O1204      V1208   1.903       .  S
O1204      C1211   1.265       .  A
O1205      V1208   1.898   1_655  S
O1205      C1210   1.264       .  A
O1206      V1208   1.899       .  S
O1206      C1209   1.264       .  A
V1207      V1208   2.087       .  T
C1209      C1372   1.473       .  S
C1210      C1399   1.472       .  S
C1211      C1280   1.488       .  S
C1212      C1253   1.487       .  S
C1213      C1214   1.409       .  A
C1214      H1219   1.079       .  S
C1215      C1216   1.418       .  A
C1216      C1217   1.408       .  A
C1216      H1220   1.077       .  S
C1217      C1218   1.400       .  A
C1218      H1221   1.083       .  S
C1222      C1295   1.485       .  S
C1222      C1223   1.408       .  A
C1222      C1227   1.400       .  A
C1223      C1224   1.419       .  A
C1223      H1228   1.075       .  S
C1225      C1226   1.410       .  A
C1225      H1229   1.080       .  S
C1227      H1230   1.084       .  S
C1231      C1296   1.487       .  S
C1231      C1232   1.408       .  A
C1231      C1236   1.400       .  A
C1232      C1233   1.418       .  A
C1232      H1237   1.078       .  S
C1233      C1242   1.520       .  S
C1233      C1234   1.418       .  A
C1234      C1235   1.408       .  A
C1234      H1238   1.078       .  S
C1235      C1236   1.402       .  A
C1236      H1239   1.083       .  S
C1240      C1241   1.410       .  A
C1240      C1245   1.402       .  A
C1241      C1242   1.418       .  A
C1241      H1246   1.078       .  S
C1242      C1243   1.417       .  A
C1243      C1244   1.408       .  A
C1243      H1247   1.078       .  S
C1244      C1245   1.401       .  A
C1245      H1248   1.083       .  S
C1249      C1250   1.407   1_455  A
C1249      C1254   1.401       .  A
C1250      C1251   1.416   1_655  A
C1250      H1255   1.079       .  S
C1251      C1252   1.418       .  A
C1252      C1253   1.409       .  A
C1252      H1256   1.079       .  S
C1253      C1254   1.401       .  A
C1254      H1257   1.084       .  S
C1258      C1259   1.409       .  A
C1258      C1263   1.402       .  A
C1259      C1260   1.418   1_655  A
C1259      H1264   1.078       .  S
C1260      C1261   1.419       .  A
C1261      C1262   1.408   1_455  A
C1261      H1265   1.078       .  S
C1262      C1310   1.489       .  S
C1262      C1263   1.401       .  A
C1263      H1266   1.083       .  S
C1267      C1268   1.409       .  A
C1268      H1273   1.080       .  S
C1269      C1278   1.527       .  S
C1269      C1270   1.421   1_455  A
C1270      C1271   1.409       .  A
C1270      H1274   1.075       .  S
C1271      C1309   1.488       .  S
C1271      C1272   1.401   1_655  A
C1272      H1275   1.084       .  S
C1276      C1277   1.408       .  A
C1276      C1281   1.401       .  A
C1277      C1278   1.418       .  A
C1277      H1282   1.075       .  S
C1279      C1280   1.410       .  A
C1279      H1283   1.080       .  S
O1285      V1293   1.903       .  S
O1285      C1295   1.266       .  A
O1286      V1293   1.901       .  S
O1286      C1296   1.264       .  A
O1287      V1293   1.898       .  S
O1287      C1297   1.264       .  A
O1288      V1293   1.899       .  S
O1288      C1298   1.264       .  A
O1289      V1294   1.899       .  S
O1289      C1298   1.264       .  A
O1290      V1294   1.899       .  S
O1290      C1297   1.264       .  A
O1291      V1294   1.907       .  S
O1291      C1296   1.268       .  A
O1292      V1294   1.901       .  S
O1292      C1295   1.265       .  A
V1293      V1294   2.087       .  T
C1297      C1348   1.473       .  S
C1298      C1324   1.472       .  S
O1299      V1307   1.905       .  S
O1299      C1309   1.267       .  A
O1300      V1307   1.904       .  S
O1300      C1310   1.265       .  A
O1301      V1307   1.899       .  S
O1301      C1311   1.264       .  A
O1302      V1307   1.897   1_455  S
O1302      C1312   1.264       .  A
O1303      V1308   1.900   1_455  S
O1303      C1312   1.265       .  A
O1304      V1308   1.900       .  S
O1304      C1311   1.265       .  A
O1305      V1308   1.906       .  S
O1305      C1310   1.267       .  A
O1306      V1308   1.903       .  S
O1306      C1309   1.265       .  A
V1307      V1308   2.086       .  T
C1311      C1351   1.476       .  S
C1312      C1327   1.476       .  S
C1313      C1314   1.399       .  A
C1313      C1318   1.404       .  A
C1313      H1329   1.084       .  S
C1314      C1315   1.404       .  A
C1314      H1330   1.084       .  S
C1315      C1325   1.403       .  A
C1315      C1316   1.412       .  A
C1316      C1322   1.412       .  A
C1316      C1317   1.411       .  A
C1317      C1319   1.412       .  A
C1317      C1318   1.411       .  A
C1318      C1326   1.402       .  A
C1319      C1328   1.402       .  A
C1319      C1320   1.404       .  A
C1320      C1321   1.399       .  A
C1320      H1331   1.084       .  S
C1321      C1322   1.403       .  A
C1321      H1332   1.084       .  S
C1322      C1323   1.402       .  A
C1323      C1324   1.404       .  A
C1323      H1333   1.085       .  S
C1324      C1325   1.405       .  A
C1325      H1334   1.085       .  S
C1326      C1327   1.406       .  A
C1326      H1335   1.084       .  S
C1327      C1328   1.406       .  A
C1328      H1336   1.084       .  S
C1337      C1338   1.398       .  A
C1337      C1342   1.403       .  A
C1337      H1353   1.084       .  S
C1338      C1339   1.403       .  A
C1338      H1354   1.084       .  S
C1339      C1349   1.401       .  A
C1339      C1340   1.412       .  A
C1340      C1346   1.412       .  A
C1340      C1341   1.411       .  A
C1341      C1343   1.412       .  A
C1341      C1342   1.412       .  A
C1342      C1350   1.402       .  A
C1343      C1352   1.403       .  A
C1343      C1344   1.404       .  A
C1344      C1345   1.399       .  A
C1344      H1355   1.084       .  S
C1345      C1346   1.404       .  A
C1345      H1356   1.084       .  S
C1346      C1347   1.403       .  A
C1347      C1348   1.406       .  A
C1347      H1357   1.084       .  S
C1348      C1349   1.404       .  A
C1349      H1358   1.085       .  S
C1350      C1351   1.405       .  A
C1350      H1359   1.084       .  S
C1351      C1352   1.406       .  A
C1352      H1360   1.084       .  S
C1361      C1362   1.399       .  A
C1361      C1366   1.404       .  A
C1361      H1377   1.084       .  S
C1362      C1363   1.403       .  A
C1362      H1378   1.084       .  S
C1363      C1373   1.402       .  A
C1363      C1364   1.412       .  A
C1364      C1370   1.412       .  A
C1364      C1365   1.411       .  A
C1365      C1367   1.412       .  A
C1365      C1366   1.412       .  A
C1366      C1374   1.402       .  A
C1367      C1376   1.402       .  A
C1367      C1368   1.404       .  A
C1368      C1369   1.399       .  A
C1368      H1379   1.084       .  S
C1369      C1370   1.404       .  A
C1369      H1380   1.084       .  S
C1370      C1371   1.402       .  A
C1371      C1372   1.405       .  A
C1371      H1381   1.085       .  S
C1372      C1373   1.405       .  A
C1373      H1382   1.085       .  S
C1374      C1375   1.406       .  A
C1374      H1383   1.084       .  S
C1375      C1376   1.406       .  A
C1376      H1384   1.084       .  S
C1385      C1386   1.398       .  A
C1385      C1390   1.403       .  A
C1385      H1401   1.084       .  S
C1386      C1387   1.403       .  A
C1386      H1402   1.084       .  S
C1387      C1397   1.403       .  A
C1387      C1388   1.412       .  A
C1388      C1394   1.411       .  A
C1388      C1389   1.411       .  A
C1389      C1391   1.412       .  A
C1389      C1390   1.412       .  A
C1390      C1398   1.402       .  A
C1391      C1400   1.402       .  A
C1391      C1392   1.403       .  A
C1392      C1393   1.399       .  A
C1392      H1403   1.084       .  S
C1393      C1394   1.404       .  A
C1393      H1404   1.084       .  S
C1394      C1395   1.402       .  A
C1395      C1396   1.406       .  A
C1395      H1405   1.084       .  S
C1396      C1397   1.406       .  A
C1397      H1406   1.084       .  S
C1398      C1399   1.404       .  A
C1398      H1407   1.085       .  S
C1399      C1400   1.405       .  A
C1400      H1408   1.084       .  S
C1409      C1410   1.400       .  A
C1409      C1414   1.404       .  A
C1409      H1425   1.084       .  S
C1410      C1411   1.404       .  A
C1410      H1426   1.084       .  S
C1411      C1421   1.404       .  A
C1411      C1412   1.412       .  A
C1412      C1418   1.412       .  A
C1412      C1413   1.412       .  A
C1413      C1415   1.412       .  A
C1413      C1414   1.412       .  A
C1414      C1422   1.404       .  A
C1415      C1424   1.402       .  A
C1415      C1416   1.403       .  A
C1416      C1417   1.398       .  A
C1416      H1427   1.084       .  S
C1417      C1418   1.403       .  A
C1417      H1428   1.084       .  S
C1418      C1419   1.402       .  A
C1419      C1420   1.405       .  A
C1419      H1429   1.084       .  S
C1420      C1421   1.407       .  A
C1421      H1430   1.084       .  S
C1422      C1423   1.406       .  A
C1422      H1431   1.084       .  S
C1423      C1424   1.405       .  A
C1424      H1432   1.085       .  S
C1433      C1434   1.399       .  A
C1433      C1438   1.404       .  A
C1433      H1449   1.084       .  S
C1434      C1435   1.403       .  A
C1434      H1450   1.084       .  S
C1435      C1445   1.403       .  A
C1435      C1436   1.413       .  A
C1436      C1442   1.413       .  A
C1436      C1437   1.412       .  A
C1437      C1439   1.412       .  A
C1437      C1438   1.412       .  A
C1438      C1446   1.403       .  A
C1439      C1448   1.403       .  A
C1439      C1440   1.404       .  A
C1440      C1441   1.399       .  A
C1440      H1451   1.083       .  S
C1441      C1442   1.403       .  A
C1441      H1452   1.084       .  S
C1442      C1443   1.403       .  A
C1443      C1444   1.402       .  A
C1443      H1453   1.085       .  S
C1444      C1445   1.402       .  A
C1445      H1454   1.085       .  S
C1446      C1447   1.406       .  A
C1446      H1455   1.084       .  S
C1447      C1448   1.406       .  A
C1448      H1456   1.084       .  S
C1457      C1458   1.398       .  A
C1457      C1462   1.403       .  A
C1457      H1473   1.084       .  S
C1458      C1459   1.403       .  A
C1458      H1474   1.084       .  S
C1459      C1469   1.401       .  A
C1459      C1460   1.412       .  A
C1460      C1466   1.412       .  A
C1460      C1461   1.410       .  A
C1461      C1463   1.412       .  A
C1461      C1462   1.412       .  A
C1462      C1470   1.401       .  A
C1463      C1472   1.403       .  A
C1463      C1464   1.404       .  A
C1464      C1465   1.399       .  A
C1464      H1475   1.084       .  S
C1465      C1466   1.404       .  A
C1465      H1476   1.084       .  S
C1466      C1467   1.402       .  A
C1467      C1468   1.405       .  A
C1467      H1477   1.085       .  S
C1468      C1469   1.405       .  A
C1469      H1478   1.084       .  S
C1470      C1471   1.404       .  A
C1470      H1479   1.085       .  S
C1471      C1472   1.405       .  A
C1472      H1480   1.084       .  S
C1481      C1482   1.398       .  A
C1481      C1486   1.403       .  A
C1481      H1497   1.084       .  S
C1482      C1483   1.403       .  A
C1482      H1498   1.084       .  S
C1483      C1493   1.402       .  A
C1483      C1484   1.412       .  A
C1484      C1490   1.412       .  A
C1484      C1485   1.411       .  A
C1485      C1487   1.411       .  A
C1485      C1486   1.412       .  A
C1486      C1494   1.402       .  A
C1487      C1496   1.403       .  A
C1487      C1488   1.404       .  A
C1488      C1489   1.399       .  A
C1488      H1499   1.084       .  S
C1489      C1490   1.404       .  A
C1489      H1500   1.084       .  S
C1490      C1491   1.404       .  A
C1491      C1492   1.405       .  A
C1491      H1501   1.084       .  S
C1492      C1493   1.404       .  A
C1493      H1502   1.085       .  S
C1494      C1495   1.406       .  A
C1494      H1503   1.084       .  S
C1495      C1496   1.407       .  A
C1496      H1504   1.084       .  S
