geometry optimzed in LAMMPS
_audit_creation_date              2020-12-01 
_audit_creation_method            'lammps2cif' 
_symmetry_space_group_name_H-M    'P1' 
_symmetry_Int_Tables_number       1 
_symmetry_cell_setting            triclinic 
loop_ 
_symmetry_equiv_pos_as_xyz 
  x,y,z 
_cell_length_a                    54.34232524 
_cell_length_b                    54.42277313245534 
_cell_length_c                    46.36217597037108 
_cell_angle_alpha                 98.46891368018001 
_cell_angle_beta                  81.629010079925 
_cell_angle_gamma                 124.6062651672799 
loop_ 
_atom_site_label 
_atom_site_type_symbol 
_atom_site_fract_x 
_atom_site_fract_y 
_atom_site_fract_z 
_atom_site_charge 
C1          C  0.34866907  0.15225200  0.97217917     0.80000
N2          N  0.31826832  0.13592088  0.97373891    -0.78300
C3          C  0.30352873  0.14976578  0.97857025     0.82500
N4          N  0.31940994  0.18015479  0.98161331    -0.78200
C5          C  0.34986868  0.19657806  0.97958132     0.82600
N6          N  0.36437389  0.18254940  0.97462499    -0.79900
C7          C  0.34655101  0.15135423  0.22065282     0.80000
N8          N  0.36278239  0.18168624  0.22247624    -0.78300
C9          C  0.34887815  0.19630155  0.22777150     0.82500
N10         N  0.31846212  0.18042063  0.23072667    -0.80000
C11         C  0.30201596  0.14999552  0.22829542     0.82600
N12         N  0.31615303  0.13553888  0.22318704    -0.79900
C13         C  0.15079926  0.34564586  0.32418964     0.80000
N14         N  0.13492931  0.31532438  0.32191461    -0.78300
C15         C  0.14924910  0.30110114  0.31668397     0.82500
N16         N  0.17970635  0.31737334  0.31396311    -0.78200
C17         C  0.19573176  0.34777689  0.31668667     0.82600
N18         N  0.18117853  0.36179850  0.32200193    -0.79900
C19         C  0.14976798  0.34590559  0.06916700     0.80000
N20         N  0.13334686  0.31554550  0.06812984    -0.78300
C21         C  0.14726024  0.30090358  0.06460562     0.82500
N22         N  0.17767760  0.31676502  0.06260785    -0.78200
C23         C  0.19415717  0.34713777  0.06431917     0.82600
N24         N  0.18011058  0.36159160  0.06773794    -0.79900
N25         N  0.06397924  0.04861326  0.42691108    -0.06300
N26         N  0.08375226  0.06002653  0.44670546    -0.58400
N27         N  0.04860115  0.06302414  0.36691202    -0.06000
N28         N  0.05884232  0.08247833  0.34709115    -0.60500
N29         N  0.03853091  0.07159259  0.39108269    -0.05600
N30         N  0.04125521  0.09677990  0.38812553    -0.58400
N31         N  0.07310066  0.03897565  0.40281140    -0.05300
N32         N  0.09906340  0.04318436  0.40586078    -0.60900
C33         C  0.10531030  0.05620215  0.43335892     0.95900
C34         C  0.05382668  0.10318542  0.36059954     0.95700
N35         N  0.49440321  0.47763946  0.32561733    -0.06500
N36         N  0.48146752  0.47192708  0.30129523    -0.59000
N37         N  0.04502819  0.47976567  0.36145147    -0.04600
N38         N  0.06723249  0.47611829  0.35966556    -0.60300
N39         N  0.01908171  0.45369649  0.36125840    -0.06500
N40         N  0.02302581  0.43169983  0.35926325    -0.59300
N41         N  0.02035359  0.00373227  0.32560427    -0.04200
N42         N  0.02565683  0.01636372  0.30120497    -0.60300
Mn43       Mn  0.04771094  0.02177444  0.36355357     1.18400
C44         C  0.50123067  0.49623023  0.28633816     0.98000
C45         C  0.05312017  0.44606837  0.35837433     0.98600
N46         N  0.47983094  0.04343466  0.43236088    -0.06500
N47         N  0.47605237  0.06559324  0.43515773    -0.62800
N48         N  0.47810996  0.49299477  0.46764256    -0.05300
N49         N  0.47227368  0.48036559  0.49216701    -0.63500
N50         N  0.00412868  0.01905303  0.46782261    -0.06000
N51         N  0.01654504  0.02473766  0.49249651    -0.63100
N52         N  0.45381320  0.01744856  0.43228969    -0.04900
N53         N  0.43169683  0.02133298  0.43514779    -0.63800
Mn54       Mn  0.02201817  0.04649928  0.43013202     1.10700
C55         C  0.44596255  0.05142995  0.43679555     0.99200
C56         C  0.49642114  0.50043067  0.00737715     0.99300
N57         N  0.45972947  0.42515812  0.40206473    -0.06100
N58         N  0.45605020  0.39945970  0.40474069    -0.61400
N59         N  0.42592442  0.45838551  0.39030633    -0.05400
N60         N  0.40002520  0.45422324  0.38715370    -0.58200
N61         N  0.43502699  0.44858924  0.36631270    -0.06700
N62         N  0.41534887  0.43717462  0.34645416    -0.61000
N63         N  0.44947510  0.43369003  0.42611671    -0.05700
N64         N  0.43817296  0.41372151  0.44558787    -0.58200
Mn65       Mn  0.47675073  0.45044772  0.36323217     1.20200
Mn66       Mn  0.45094388  0.47526280  0.42967905     1.10100
Cl67       Cl  0.49936924  0.49848152  0.39667867    -0.86100
C68         C  0.44272019  0.39273497  0.43198613     0.96200
C69         C  0.39386410  0.44112479  0.35968801     0.96000
N70         N  0.06264174  0.04810973  0.17718552    -0.06300
N71         N  0.08239248  0.05887935  0.19690817    -0.58400
N72         N  0.04725251  0.06312537  0.11759958    -0.06000
N73         N  0.05784462  0.08292870  0.09804688    -0.60500
N74         N  0.03721357  0.07159706  0.14187814    -0.05600
N75         N  0.04035989  0.09706578  0.13927123    -0.58400
N76         N  0.07148076  0.03841374  0.15292189    -0.05300
N77         N  0.09714025  0.04192099  0.15572514    -0.60900
C78         C  0.10356289  0.05457369  0.18326743     0.95900
C79         C  0.05312537  0.10376863  0.11184025     0.95700
N80         N  0.49294878  0.47770575  0.07593371    -0.06500
N81         N  0.48044295  0.47192037  0.05128525    -0.59000
N82         N  0.04365273  0.47962432  0.11137846    -0.04600
N83         N  0.06577238  0.47573293  0.10890069    -0.60300
N84         N  0.01762134  0.45365483  0.11134511    -0.06500
N85         N  0.02136783  0.43151985  0.10883201    -0.59300
N86         N  0.01892937  0.00378514  0.07603484    -0.04200
N87         N  0.02467860  0.01632652  0.05148245    -0.60300
Mn88       Mn  0.04622500  0.02167083  0.11387317     1.18400
C89         C  0.50050221  0.49620429  0.03634079     0.98000
C90         C  0.05143373  0.44562401  0.10742152     0.98600
N91         N  0.47814513  0.04298800  0.18340102    -0.06500
N92         N  0.47399713  0.06489393  0.18584136    -0.62800
N93         N  0.47734902  0.49285538  0.21841782    -0.05300
N94         N  0.47204719  0.48025906  0.24283744    -0.63500
N95         N  0.00329806  0.01896194  0.21836730    -0.06000
N96         N  0.01622696  0.02471535  0.24270705    -0.63100
N97         N  0.45224067  0.01687227  0.18351327    -0.04900
N98         N  0.42988902  0.02039492  0.18614608    -0.63800
Mn99       Mn  0.02071156  0.04629617  0.18078793     1.10700
C100        C  0.44383367  0.05042199  0.18747005     0.99200
C101        C  0.49647470  0.50041868  0.25768816     0.99300
N102        N  0.45893471  0.42519331  0.15265432    -0.06100
N103        N  0.45629959  0.40003349  0.15555539    -0.61400
N104        N  0.42447575  0.45807303  0.14141407    -0.05400
N105        N  0.39845873  0.45381669  0.13858965    -0.58200
N106        N  0.43345234  0.44838882  0.11723001    -0.06700
N107        N  0.41350490  0.43686698  0.09761604    -0.61000
N108        N  0.44890264  0.43371253  0.17688547    -0.05700
N109        N  0.43878810  0.41427714  0.19668947    -0.58200
Mn110      Mn  0.47533747  0.45039988  0.11368872     1.20200
Mn111      Mn  0.44982566  0.47496416  0.18064529     1.10100
Cl112      Cl  0.49799731  0.49835680  0.14721918    -0.86100
C113        C  0.44382300  0.39361556  0.18311810     0.96200
C114        C  0.39203185  0.44072102  0.11116029     0.96000
C115        C  0.09217463  0.17217678  0.07758485     0.20200
C116        C  0.11604779  0.19545127  0.06159972    -0.39700
C117        C  0.11735856  0.22218047  0.06489935     0.19100
C118        C  0.09607013  0.22523337  0.08220248     0.21800
C119        C  0.07201245  0.20185973  0.09794661    -0.40200
C120        C  0.07112736  0.17537929  0.09521885     0.20600
N121        N  0.08749482  0.14554630  0.08018893    -0.33500
C122        C  0.06367397  0.13200340  0.10001583    -0.11100
C123        C  0.05274312  0.14979226  0.10980594    -0.29900
N124        N  0.10333377  0.25337200  0.08308599    -0.46500
C125        C  0.12968236  0.26843198  0.06665563    -0.05700
C126        C  0.13913306  0.24975893  0.05489005    -0.23100
H127        H  0.13314263  0.19337820  0.04868177     0.18700
H128        H  0.05600644  0.20457415  0.11234354     0.17500
H129        H  0.03462387  0.14514649  0.12627887     0.13800
H130        H  0.15973111  0.25585528  0.04178758     0.13600
H131        H  0.10054476  0.13768301  0.07020532     0.31800
H132        H  0.09183939  0.26213788  0.09522101     0.34600
C133        C  0.27080637  0.37412265  0.06747355     0.20200
C134        C  0.29566569  0.37222245  0.06562189    -0.39700
C135        C  0.32101231  0.39688820  0.07859997     0.19100
C136        C  0.32136553  0.42133050  0.09278736     0.21800
C137        C  0.29678005  0.42357290  0.09397370    -0.40200
C138        C  0.27159724  0.39910291  0.08061843     0.20600
N139        N  0.24331165  0.35269834  0.05900685    -0.33500
C140        C  0.22661075  0.36425969  0.06663611    -0.11100
C141        C  0.24354144  0.39327877  0.07982687    -0.29900
N142        N  0.34708234  0.44049505  0.10569798    -0.46500
C143        C  0.36328571  0.42830788  0.09930282    -0.05700
C144        C  0.34799520  0.40131915  0.08219732    -0.23100
H145        H  0.29497969  0.35256798  0.05570934     0.18700
H146        H  0.29687021  0.44247828  0.10534176     0.17500
H147        H  0.23583849  0.40742341  0.08923575     0.13800
H148        H  0.35498343  0.38620198  0.07485979     0.13600
H149        H  0.23612022  0.33123864  0.04947626     0.31800
H150        H  0.35300926  0.46028126  0.11854036     0.34600
C151        C  0.10025811  0.37025319  0.08132774     0.20200
C152        C  0.07265971  0.36726666  0.08530842    -0.39700
C153        C  0.07422293  0.39402003  0.09225365     0.19100
C154        C  0.10119049  0.42165538  0.09491944     0.21800
C155        C  0.12880242  0.42464285  0.09089947    -0.40200
C156        C  0.12723397  0.39787100  0.08396462     0.20600
N157        N  0.10481110  0.34818299  0.07524869    -0.33500
C158        C  0.13490975  0.36190505  0.07405158    -0.11100
C159        C  0.14966457  0.39288274  0.07920210    -0.29900
N160        N  0.09657357  0.44368481  0.10115049    -0.46500
C161        C  0.06646835  0.42986323  0.10241645    -0.05700
C162        C  0.05175697  0.39893731  0.09713513    -0.23100
H163        H  0.05154299  0.34571844  0.08324123     0.18700
H164        H  0.14991784  0.44618634  0.09301224     0.17500
H165        H  0.17353075  0.40943814  0.07997375     0.13800
H166        H  0.02788876  0.38237558  0.09640798     0.13600
H167        H  0.08847397  0.32524916  0.07246705     0.31800
H168        H  0.11284402  0.46665024  0.10401483     0.34600
C169        C  0.09738927  0.22464962  0.33111511     0.20200
C170        C  0.07243639  0.20073272  0.34549229    -0.39700
C171        C  0.07191051  0.17450071  0.34327959     0.19100
C172        C  0.09417122  0.17206297  0.32735140     0.21800
C173        C  0.11893123  0.19587421  0.31266984    -0.40200
C174        C  0.11982184  0.22234481  0.31545016     0.20600
N175        N  0.10450134  0.25271590  0.33221548    -0.33500
C176        C  0.13186882  0.26850613  0.31760761    -0.11100
C177        C  0.14212397  0.25033667  0.30665938    -0.29900
N178        N  0.08957312  0.14556193  0.33030292    -0.46500
C179        C  0.06456872  0.13134542  0.34864530    -0.05700
C180        C  0.05278972  0.14854392  0.35713930    -0.23100
H181        H  0.05550286  0.20289684  0.35866468     0.18700
H182        H  0.13691851  0.19437717  0.30119027     0.17500
H183        H  0.16354671  0.25700987  0.29505678     0.13800
H184        H  0.03366255  0.14331599  0.37241466     0.13600
H185        H  0.09216325  0.26094388  0.34344384     0.31800
H186        H  0.10340742  0.13823095  0.32161942     0.34600
C187        C  0.27338072  0.37632439  0.31518275     0.20200
C188        C  0.29866581  0.37495046  0.31182186    -0.39700
C189        C  0.32399105  0.39930908  0.32515297     0.19100
C190        C  0.32397386  0.42305284  0.34078243     0.21800
C191        C  0.29916166  0.42502400  0.34305614    -0.40200
C192        C  0.27393331  0.40077633  0.32963874     0.20600
N193        N  0.24557188  0.35456567  0.30768531    -0.33500
C194        C  0.22846164  0.36540648  0.31732439    -0.11100
C195        C  0.24544385  0.39430998  0.33070393    -0.29900
N196        N  0.34930537  0.44145958  0.35443569    -0.46500
C197        C  0.36565312  0.42951662  0.34717711    -0.05700
C198        C  0.35090279  0.40348743  0.32862382    -0.23100
H199        H  0.29813806  0.35561964  0.30106387     0.18700
H200        H  0.29893378  0.44326448  0.35575019     0.17500
H201        H  0.23752945  0.40785187  0.34164814     0.13800
H202        H  0.35800512  0.38858279  0.32051631     0.13600
H203        H  0.23845864  0.33329345  0.29765040     0.31800
H204        H  0.35476841  0.46044979  0.36850980     0.34600
C205        C  0.07627504  0.39573250  0.34665427     0.20200
C206        C  0.07287876  0.36799300  0.34100832    -0.39700
C207        C  0.09955401  0.36916752  0.33732696     0.19100
C208        C  0.12745541  0.39590884  0.33911863     0.21800
C209        C  0.13084891  0.42364865  0.34479729    -0.40200
C210        C  0.10417490  0.42248164  0.34847504     0.20600
N211        N  0.05446845  0.40071755  0.35044465    -0.33500
C212        C  0.06865285  0.43083617  0.35458542    -0.11100
C213        C  0.09962430  0.44520869  0.35360852    -0.29900
N214        N  0.14929463  0.39095816  0.33464380    -0.46500
C215        C  0.13515756  0.36085969  0.33000008    -0.05700
C216        C  0.10413350  0.34648765  0.33151303    -0.23100
H217        H  0.05110810  0.34707760  0.33943283     0.18700
H218        H  0.15263744  0.44458134  0.34608385     0.17500
H219        H  0.11650105  0.46904602  0.35588927     0.13800
H220        H  0.08725107  0.32268885  0.32867677     0.13600
H221        H  0.03143537  0.38468903  0.34984569     0.31800
H222        H  0.17237522  0.40706069  0.33475726     0.34600
C223        C  0.36938453  0.10061383  0.20769915     0.20200
C224        C  0.36592876  0.07283323  0.20485810    -0.39700
C225        C  0.39252242  0.07386615  0.19899603     0.19100
C226        C  0.42039233  0.10051891  0.19606737     0.21800
C227        C  0.42382725  0.12827126  0.19867793    -0.40200
C228        C  0.39726053  0.12724273  0.20472234     0.20600
N229        N  0.34769158  0.10574903  0.21372458    -0.33500
C230        C  0.36191712  0.13585697  0.21466019    -0.11100
C231        C  0.39283331  0.15003553  0.20916751    -0.29900
N232        N  0.44221299  0.09552690  0.19128301    -0.46500
C233        C  0.42810488  0.06550736  0.19121088    -0.05700
C234        C  0.39712096  0.05118994  0.19583883    -0.23100
H235        H  0.34419317  0.05200600  0.20738072     0.18700
H236        H  0.44559453  0.14913968  0.19656530     0.17500
H237        H  0.40976116  0.17380449  0.20855997     0.13800
H238        H  0.38031995  0.02748226  0.19721298     0.13600
H239        H  0.32466348  0.08977528  0.21710240     0.31800
H240        H  0.46526782  0.11154578  0.18853585     0.34600
C241        C  0.40103335  0.27251241  0.21273622     0.20200
C242        C  0.42547196  0.29609090  0.19756143    -0.39700
C243        C  0.42644104  0.32259151  0.20043374     0.19100
C244        C  0.40519735  0.32566672  0.21782809     0.21800
C245        C  0.38102700  0.30222640  0.23340756    -0.40200
C246        C  0.37954107  0.27540713  0.22981181     0.20600
N247        N  0.39342381  0.24423597  0.21113322    -0.33500
C248        C  0.36662448  0.22889207  0.22678955    -0.11100
C249        C  0.35725691  0.24754668  0.23891660    -0.29900
N250        N  0.40978651  0.35220691  0.21506820    -0.46500
C251        C  0.43367365  0.36573937  0.19531984    -0.05700
C252        C  0.44482875  0.34812737  0.18581130    -0.23100
H253        H  0.44153690  0.29342394  0.18321839     0.18700
H254        H  0.36371700  0.30417492  0.24598706     0.17500
H255        H  0.33637855  0.24128175  0.25152657     0.13800
H256        H  0.46293363  0.35273877  0.16933045     0.13600
H257        H  0.40499957  0.23558798  0.19892363     0.31800
H258        H  0.39652207  0.35992420  0.22473765     0.34600
C259        C  0.22504432  0.09831770  0.21458530     0.20200
C260        C  0.20070601  0.07284162  0.20105280    -0.39700
C261        C  0.17491264  0.07300104  0.20186714     0.19100
C262        C  0.17321765  0.09636779  0.21585642     0.21800
C263        C  0.19746556  0.12171068  0.22963152    -0.40200
C264        C  0.22352560  0.12190841  0.22814233     0.20600
N265        N  0.25286385  0.10479888  0.21437933    -0.33500
C266        C  0.26931542  0.13291371  0.22740490    -0.11100
C267        C  0.25177286  0.14428582  0.23645102    -0.29900
N268        N  0.14688409  0.09193134  0.21216482    -0.46500
C269        C  0.13201685  0.06591043  0.19523099    -0.05700
C270        C  0.14868557  0.05337118  0.18835731    -0.23100
H271        H  0.20225162  0.05492037  0.18948712     0.18700
H272        H  0.19656997  0.14050937  0.23953899     0.17500
H273        H  0.25904613  0.16644506  0.24641702     0.13800
H274        H  0.14285293  0.03323865  0.17448667     0.13600
H275        H  0.26053071  0.09150933  0.20463989     0.31800
H276        H  0.14001712  0.10639404  0.21951428     0.34600
C277        C  0.37222451  0.10219698  0.45942284     0.20200
C278        C  0.36871503  0.07440694  0.45571918    -0.39700
C279        C  0.39528976  0.07547468  0.45011859     0.19100
C280        C  0.42325782  0.10218416  0.44840446     0.21800
C281        C  0.42678532  0.13003841  0.45212282    -0.40200
C282        C  0.40014459  0.12895370  0.45770907     0.20600
N283        N  0.35039416  0.10712364  0.96484590    -0.33500
C284        C  0.36450658  0.13723999  0.46662670    -0.11100
C285        C  0.39555637  0.15167456  0.46232843    -0.29900
N286        N  0.44497210  0.09704032  0.44316697    -0.46500
C287        C  0.43060580  0.06687250  0.44154670    -0.05700
C288        C  0.39965197  0.05264451  0.44570475    -0.23100
H289        H  0.34690097  0.05349835  0.95711311     0.18700
H290        H  0.44860664  0.15095538  0.45081840     0.17500
H291        H  0.41242816  0.17551197  0.46244365     0.13800
H292        H  0.38268760  0.02884704  0.44579923     0.13600
H293        H  0.32736830  0.09101357  0.96715465     0.31800
H294        H  0.46808087  0.11301115  0.44101368     0.34600
C295        C  0.40329859  0.32465308  0.46658563     0.20200
C296        C  0.37920978  0.30127340  0.48228370    -0.39700
C297        C  0.37870905  0.27504162  0.48005339     0.19100
C298        C  0.40096451  0.27264935  0.46405261     0.21800
C299        C  0.42525634  0.29614840  0.44870577    -0.40200
C300        C  0.42529660  0.32203917  0.45027054     0.20600
N301        N  0.40748508  0.35085814  0.46309393    -0.33500
C302        C  0.43195691  0.36464163  0.44403294    -0.11100
C303        C  0.44374988  0.34747693  0.43555643    -0.29900
N304        N  0.39416055  0.24475401  0.46341416    -0.46500
C305        C  0.36710491  0.22910933  0.47856489    -0.05700
C306        C  0.35679514  0.24723072  0.98950693    -0.23100
H307        H  0.36136049  0.30283147  0.99405518     0.18700
H308        H  0.44197344  0.29384127  0.43524497     0.17500
H309        H  0.46260806  0.35249099  0.41996517     0.13800
H310        H  0.33547465  0.24056613  0.00134969     0.13600
H311        H  0.39384195  0.35832716  0.47206935     0.31800
H312        H  0.40635681  0.23646110  0.45196476     0.34600
C313        C  0.22594771  0.12112472  0.47821790     0.20200
C314        C  0.20052627  0.12229094  0.98161218    -0.39700
C315        C  0.17533689  0.09802772  0.46798511     0.19100
C316        C  0.17563258  0.07460926  0.45192887     0.21800
C317        C  0.20065024  0.07289293  0.44948639    -0.40200
C318        C  0.22571974  0.09700387  0.46331234     0.20600
N319        N  0.25353430  0.14270894  0.98644673    -0.33500
C320        C  0.27086644  0.13209888  0.47691209    -0.11100
C321        C  0.25422650  0.10350930  0.46273492    -0.29900
N322        N  0.15030273  0.05622111  0.43820018    -0.46500
C323        C  0.13366256  0.06783982  0.44582177    -0.05700
C324        C  0.14825912  0.09363745  0.46472437    -0.23100
H325        H  0.20079831  0.14134878  0.99280791     0.18700
H326        H  0.20107857  0.05486142  0.43655273     0.17500
H327        H  0.26236703  0.09016473  0.45178200     0.13800
H328        H  0.14093540  0.10828589  0.47323501     0.13600
H329        H  0.26035941  0.16370862  0.99704803     0.31800
H330        H  0.14501973  0.03744226  0.42385236     0.34600
C331        C  0.34866901  0.15225195  0.47217920     0.80000
N332        N  0.31826825  0.13592082  0.47373899    -0.78300
C333        C  0.30352868  0.14976576  0.47857024     0.82500
N334        N  0.31940993  0.18015477  0.48161330    -0.78200
C335        C  0.34986866  0.19657803  0.47958135     0.82600
N336        N  0.36437384  0.18254935  0.47462499    -0.79900
C337        C  0.34655107  0.15135425  0.72065272     0.80000
N338        N  0.36278245  0.18168625  0.72247628    -0.78300
C339        C  0.34887819  0.19630154  0.72777152     0.82500
N340        N  0.31846215  0.18042061  0.73072654    -0.80000
C341        C  0.30201600  0.14999551  0.72829525     0.82600
N342        N  0.31615308  0.13553888  0.72318686    -0.79900
C343        C  0.15079925  0.34564584  0.82418970     0.80000
N344        N  0.13492928  0.31532436  0.82191465    -0.78300
C345        C  0.14924907  0.30110111  0.81668400     0.82500
N346        N  0.17970632  0.31737329  0.81396316    -0.78200
C347        C  0.19573173  0.34777684  0.81668673     0.82600
N348        N  0.18117852  0.36179846  0.82200200    -0.79900
C349        C  0.14976798  0.34590560  0.56916707     0.80000
N350        N  0.13334689  0.31554550  0.56812991    -0.78300
C351        C  0.14726029  0.30090360  0.56460566     0.82500
N352        N  0.17767765  0.31676505  0.56260788    -0.78200
C353        C  0.19415719  0.34713781  0.56431917     0.82600
N354        N  0.18011058  0.36159161  0.56773799    -0.79900
N355        N  0.06397930  0.04861331  0.92691100    -0.06300
N356        N  0.08375229  0.06002655  0.94670541    -0.58400
N357        N  0.04860115  0.06302412  0.86691198    -0.06000
N358        N  0.05884238  0.08247836  0.84709116    -0.60500
N359        N  0.03853090  0.07159254  0.89108266    -0.05600
N360        N  0.04125528  0.09677991  0.88812557    -0.58400
N361        N  0.07310073  0.03897568  0.90281134    -0.05300
N362        N  0.09906343  0.04318431  0.90586077    -0.60900
C363        C  0.10531031  0.05620212  0.93335891     0.95900
C364        C  0.05382676  0.10318546  0.86059960     0.95700
N365        N  0.49440319  0.47763944  0.82561734    -0.06500
N366        N  0.48146748  0.47192708  0.80129527    -0.59000
N367        N  0.04502816  0.47976567  0.86145147    -0.04600
N368        N  0.06723247  0.47611829  0.85966549    -0.60300
N369        N  0.01908168  0.45369649  0.86125847    -0.06500
N370        N  0.02302579  0.43169984  0.85926333    -0.59300
N371        N  0.02035359  0.00373223  0.82560430    -0.04200
N372        N  0.02565679  0.01636369  0.80120501    -0.60300
Mn373      Mn  0.04771098  0.02177444  0.86355356     1.18400
C374        C  0.50123061  0.49623023  0.78633820     0.98000
C375        C  0.05312016  0.44606838  0.85837433     0.98600
N376        N  0.47983092  0.04343462  0.93236091    -0.06500
N377        N  0.47605238  0.06559322  0.93515779    -0.62800
N378        N  0.47810996  0.49299486  0.96764261    -0.05300
N379        N  0.47227368  0.48036567  0.99216706    -0.63500
N380        N  0.00412868  0.01905308  0.96782263    -0.06000
N381        N  0.01654505  0.02473770  0.99249652    -0.63100
N382        N  0.45381318  0.01744854  0.93228973    -0.04900
N383        N  0.43169682  0.02133300  0.93514785    -0.63800
Mn384      Mn  0.02201819  0.04649927  0.93013199     1.10700
C385        C  0.44596258  0.05142997  0.93679562     0.99200
C386        C  0.49642110  0.50043063  0.50737715     0.99300
N387        N  0.45972946  0.42515815  0.90206476    -0.06100
N388        N  0.45605020  0.39945973  0.90474070    -0.61400
N389        N  0.42592442  0.45838545  0.89030625    -0.05400
N390        N  0.40002520  0.45422315  0.88715363    -0.58200
N391        N  0.43502697  0.44858916  0.86631262    -0.06700
N392        N  0.41534885  0.43717453  0.84645408    -0.61000
N393        N  0.44947510  0.43369005  0.92611675    -0.05700
N394        N  0.43817295  0.41372152  0.94558790    -0.58200
Mn395      Mn  0.47675072  0.45044768  0.86323216     1.20200
Mn396      Mn  0.45094388  0.47526282  0.92967906     1.10100
Cl397      Cl  0.49936923  0.49848144  0.89667870    -0.86100
C398        C  0.44272021  0.39273499  0.93198614     0.96200
C399        C  0.39386409  0.44112470  0.85968795     0.96000
N400        N  0.06264172  0.04810969  0.67718557    -0.06300
N401        N  0.08239245  0.05887933  0.69690822    -0.58400
N402        N  0.04725258  0.06312540  0.61759956    -0.06000
N403        N  0.05784464  0.08292869  0.59804684    -0.60500
N404        N  0.03721368  0.07159709  0.64187814    -0.05600
N405        N  0.04035997  0.09706579  0.63927121    -0.58400
N406        N  0.07148077  0.03841377  0.65292190    -0.05300
N407        N  0.09714029  0.04192107  0.65572515    -0.60900
C408        C  0.10356289  0.05457373  0.68326746     0.95900
C409        C  0.05312538  0.10376861  0.61184022     0.95700
N410        N  0.49294884  0.47770579  0.57593371    -0.06500
N411        N  0.48044300  0.47192038  0.55128526    -0.59000
N412        N  0.04365274  0.47962433  0.61137848    -0.04600
N413        N  0.06577238  0.47573291  0.60890075    -0.60300
N414        N  0.01762135  0.45365486  0.61134512    -0.06500
N415        N  0.02136780  0.43151985  0.60883206    -0.59300
N416        N  0.01892930  0.00378507  0.57603486    -0.04200
N417        N  0.02467852  0.01632645  0.55148247    -0.60300
Mn418      Mn  0.04622503  0.02167083  0.61387314     1.18400
C419        C  0.50050220  0.49620431  0.53634081     0.98000
C420        C  0.05143369  0.44562399  0.60742160     0.98600
N421        N  0.47814515  0.04298797  0.68340094    -0.06500
N422        N  0.47399715  0.06489391  0.68584135    -0.62800
N423        N  0.47734896  0.49285531  0.71841784    -0.05300
N424        N  0.47204712  0.48025898  0.74283747    -0.63500
N425        N  0.00329801  0.01896191  0.71836735    -0.06000
N426        N  0.01622693  0.02471528  0.74270708    -0.63100
N427        N  0.45224069  0.01687225  0.68351315    -0.04900
N428        N  0.42988905  0.02039492  0.68614602    -0.63800
Mn429      Mn  0.02071157  0.04629615  0.68078794     1.10700
C430        C  0.44383370  0.05042200  0.68747005     0.99200
C431        C  0.49647463  0.50041863  0.75768819     0.99300
N432        N  0.45893479  0.42519337  0.65265431    -0.06100
N433        N  0.45629963  0.40003354  0.65555538    -0.61400
N434        N  0.42447578  0.45807302  0.64141404    -0.05400
N435        N  0.39845877  0.45381670  0.63858966    -0.58200
N436        N  0.43345235  0.44838879  0.61722998    -0.06700
N437        N  0.41350486  0.43686692  0.59761605    -0.61000
N438        N  0.44890272  0.43371259  0.67688547    -0.05700
N439        N  0.43878815  0.41427719  0.69668946    -0.58200
Mn440      Mn  0.47533751  0.45039991  0.61368869     1.20200
Mn441      Mn  0.44982569  0.47496415  0.68064525     1.10100
Cl442      Cl  0.49799732  0.49835679  0.64721917    -0.86100
C443        C  0.44382304  0.39361560  0.68311809     0.96200
C444        C  0.39203186  0.44072101  0.61116032     0.96000
C445        C  0.09217462  0.17217673  0.57758486     0.20200
C446        C  0.11604783  0.19545124  0.56159978    -0.39700
C447        C  0.11735862  0.22218046  0.56489939     0.19100
C448        C  0.09607017  0.22523338  0.58220252     0.21800
C449        C  0.07201250  0.20185974  0.59794666    -0.40200
C450        C  0.07112734  0.17537925  0.59521885     0.20600
N451        N  0.08749478  0.14554623  0.58018891    -0.33500
C452        C  0.06367389  0.13200333  0.60001576    -0.11100
C453        C  0.05274302  0.14979218  0.60980587    -0.29900
N454        N  0.10333381  0.25337197  0.58308593    -0.46500
C455        C  0.12968240  0.26843198  0.56665565    -0.05700
C456        C  0.13913311  0.24975892  0.55489009    -0.23100
H457        H  0.13314266  0.19337814  0.54868188     0.18700
H458        H  0.05600648  0.20457417  0.61234358     0.17500
H459        H  0.03462378  0.14514644  0.62627880     0.13800
H460        H  0.15973116  0.25585525  0.54178762     0.13600
H461        H  0.10054473  0.13768294  0.57020536     0.31800
H462        H  0.09183927  0.26213789  0.59522097     0.34600
C463        C  0.27080638  0.37412262  0.56747354     0.20200
C464        C  0.29566576  0.37222250  0.56562189    -0.39700
C465        C  0.32101239  0.39688828  0.57859993     0.19100
C466        C  0.32136557  0.42133055  0.59278737     0.21800
C467        C  0.29678004  0.42357289  0.59397376    -0.40200
C468        C  0.27159723  0.39910288  0.58061849     0.20600
N469        N  0.24331169  0.35269836  0.55900678    -0.33500
C470        C  0.22661078  0.36425970  0.56663606    -0.11100
C471        C  0.24354144  0.39327875  0.57982690    -0.29900
N472        N  0.34708235  0.44049506  0.60569805    -0.46500
C473        C  0.36328573  0.42830792  0.59930285    -0.05700
C474        C  0.34799527  0.40131923  0.58219730    -0.23100
H475        H  0.29497980  0.35256803  0.55570935     0.18700
H476        H  0.29687015  0.44247823  0.60534187     0.17500
H477        H  0.23583845  0.40742334  0.58923584     0.13800
H478        H  0.35498351  0.38620205  0.57485982     0.13600
H479        H  0.23612021  0.33123856  0.54947607     0.31800
H480        H  0.35300919  0.46028124  0.61854054     0.34600
C481        C  0.10025806  0.37025314  0.58132769     0.20200
C482        C  0.07265968  0.36726664  0.58530843    -0.39700
C483        C  0.07422290  0.39402002  0.59225362     0.19100
C484        C  0.10119045  0.42165536  0.59491943     0.21800
C485        C  0.12880238  0.42464283  0.59089947    -0.40200
C486        C  0.12723393  0.39787097  0.58396458     0.20600
N487        N  0.10481107  0.34818298  0.57524864    -0.33500
C488        C  0.13490969  0.36190499  0.57405160    -0.11100
C489        C  0.14966451  0.39288269  0.57920211    -0.29900
N490        N  0.09657353  0.44368481  0.60115056    -0.46500
C491        C  0.06646831  0.42986321  0.60241650    -0.05700
C492        C  0.05175693  0.39893730  0.59713511    -0.23100
H493        H  0.05154294  0.34571841  0.58324133     0.18700
H494        H  0.14991779  0.44618633  0.59301232     0.17500
H495        H  0.17353068  0.40943807  0.57997385     0.13800
H496        H  0.02788872  0.38237559  0.59640796     0.13600
H497        H  0.08847379  0.32524896  0.57246692     0.31800
H498        H  0.11284394  0.46665020  0.60401495     0.34600
C499        C  0.09738925  0.22464967  0.83111513     0.20200
C500        C  0.07243642  0.20073279  0.84549234    -0.39700
C501        C  0.07191050  0.17450076  0.84327964     0.19100
C502        C  0.09417118  0.17206300  0.82735145     0.21800
C503        C  0.11893115  0.19587419  0.81266984    -0.40200
C504        C  0.11982177  0.22234481  0.81545012     0.20600
N505        N  0.10450135  0.25271593  0.83221553    -0.33500
C506        C  0.13186879  0.26850613  0.81760764    -0.11100
C507        C  0.14212393  0.25033665  0.80665935    -0.29900
N508        N  0.08957311  0.14556198  0.83030298    -0.46500
C509        C  0.06456873  0.13134547  0.84864537    -0.05700
C510        C  0.05278973  0.14854398  0.85713937    -0.23100
H511        H  0.05550294  0.20289699  0.85866479     0.18700
H512        H  0.13691840  0.19437708  0.80119031     0.17500
H513        H  0.16354666  0.25700983  0.79505675     0.13800
H514        H  0.03366257  0.14331608  0.87241474     0.13600
H515        H  0.09216325  0.26094400  0.84344399     0.31800
H516        H  0.10340739  0.13823099  0.82161948     0.34600
C517        C  0.27338073  0.37632440  0.81518279     0.20200
C518        C  0.29866580  0.37495044  0.81182189    -0.39700
C519        C  0.32399108  0.39930908  0.82515293     0.19100
C520        C  0.32397387  0.42305282  0.84078242     0.21800
C521        C  0.29916170  0.42502403  0.84305609    -0.40200
C522        C  0.27393333  0.40077635  0.82963871     0.20600
N523        N  0.24557187  0.35456563  0.80768534    -0.33500
C524        C  0.22846163  0.36540647  0.81732441    -0.11100
C525        C  0.24544385  0.39431000  0.83070387    -0.29900
N526        N  0.34930536  0.44145951  0.85443573    -0.46500
C527        C  0.36565313  0.42951657  0.84717706    -0.05700
C528        C  0.35090284  0.40348744  0.82862370    -0.23100
H529        H  0.29813802  0.35561961  0.80106391     0.18700
H530        H  0.29893385  0.44326456  0.85575005     0.17500
H531        H  0.23752944  0.40785191  0.84164800     0.13800
H532        H  0.35800522  0.38858284  0.82051618     0.13600
H533        H  0.23845871  0.33329354  0.79765050     0.31800
H534        H  0.35476838  0.46044965  0.86850989     0.34600
C535        C  0.07627506  0.39573252  0.84665433     0.20200
C536        C  0.07287878  0.36799302  0.84100837    -0.39700
C537        C  0.09955405  0.36916757  0.83732701     0.19100
C538        C  0.12745543  0.39590886  0.83911868     0.21800
C539        C  0.13084893  0.42364866  0.84479735    -0.40200
C540        C  0.10417491  0.42248166  0.84847510     0.20600
N541        N  0.05446846  0.40071755  0.85044469    -0.33500
C542        C  0.06865284  0.43083618  0.85458547    -0.11100
C543        C  0.09962430  0.44520871  0.85360859    -0.29900
N544        N  0.14929469  0.39095820  0.83464385    -0.46500
C545        C  0.13515758  0.36085971  0.83000014    -0.05700
C546        C  0.10413355  0.34648772  0.83151310    -0.23100
H547        H  0.05110812  0.34707761  0.83943286     0.18700
H548        H  0.15263745  0.44458135  0.84608391     0.17500
H549        H  0.11650104  0.46904604  0.85588933     0.13800
H550        H  0.08725113  0.32268892  0.82867683     0.13600
H551        H  0.03143541  0.38468901  0.84984570     0.31800
H552        H  0.17237515  0.40706062  0.83475731     0.34600
C553        C  0.36938450  0.10061382  0.70769903     0.20200
C554        C  0.36592875  0.07283323  0.70485798    -0.39700
C555        C  0.39252240  0.07386614  0.69899596     0.19100
C556        C  0.42039228  0.10051887  0.69606738     0.21800
C557        C  0.42382721  0.12827123  0.69867793    -0.40200
C558        C  0.39726049  0.12724269  0.70472220     0.20600
N559        N  0.34769159  0.10574906  0.71372454    -0.33500
C560        C  0.36191711  0.13585695  0.71466008    -0.11100
C561        C  0.39283330  0.15003550  0.70916734    -0.29900
N562        N  0.44221298  0.09552690  0.69128307    -0.46500
C563        C  0.42810486  0.06550734  0.69121092    -0.05700
C564        C  0.39712095  0.05118993  0.69583883    -0.23100
H565        H  0.34419316  0.05200599  0.70738064     0.18700
H566        H  0.44559448  0.14913968  0.69656540     0.17500
H567        H  0.40976112  0.17380447  0.70855982     0.13800
H568        H  0.38031993  0.02748224  0.69721300     0.13600
H569        H  0.32466338  0.08977525  0.71710249     0.31800
H570        H  0.46526771  0.11154571  0.68853594     0.34600
C571        C  0.40103334  0.27251235  0.71273622     0.20200
C572        C  0.42547196  0.29609083  0.69756144    -0.39700
C573        C  0.42644107  0.32259147  0.70043373     0.19100
C574        C  0.40519735  0.32566666  0.71782805     0.21800
C575        C  0.38102701  0.30222635  0.73340757    -0.40200
C576        C  0.37954107  0.27540707  0.72981187     0.20600
N577        N  0.39342376  0.24423590  0.71113315    -0.33500
C578        C  0.36662448  0.22889203  0.72678957    -0.11100
C579        C  0.35725691  0.24754662  0.73891668    -0.29900
N580        N  0.40978649  0.35220684  0.71506811    -0.46500
C581        C  0.43367370  0.36573936  0.69531981    -0.05700
C582        C  0.44482884  0.34812737  0.68581132    -0.23100
H583        H  0.44153689  0.29342385  0.68321838     0.18700
H584        H  0.36371701  0.30417489  0.74598707     0.17500
H585        H  0.33637856  0.24128166  0.75152669     0.13800
H586        H  0.46293375  0.35273876  0.66933050     0.13600
H587        H  0.40499945  0.23558787  0.69892346     0.31800
H588        H  0.39652200  0.35992404  0.72473746     0.34600
C589        C  0.22504430  0.09831764  0.71458527     0.20200
C590        C  0.20070599  0.07284159  0.70105272    -0.39700
C591        C  0.17491262  0.07300101  0.70186711     0.19100
C592        C  0.17321764  0.09636776  0.71585640     0.21800
C593        C  0.19746556  0.12171063  0.72963149    -0.40200
C594        C  0.22352559  0.12190834  0.72814232     0.20600
N595        N  0.25286382  0.10479880  0.71437930    -0.33500
C596        C  0.26931543  0.13291366  0.72740483    -0.11100
C597        C  0.25177286  0.14428576  0.73645102    -0.29900
N598        N  0.14688408  0.09193134  0.71216486    -0.46500
C599        C  0.13201682  0.06591043  0.69523104    -0.05700
C600        C  0.14868551  0.05337116  0.68835734    -0.23100
H601        H  0.20225160  0.05492036  0.68948697     0.18700
H602        H  0.19656994  0.14050929  0.73953901     0.17500
H603        H  0.25904610  0.16644497  0.74641705     0.13800
H604        H  0.14285286  0.03323864  0.67448667     0.13600
H605        H  0.26053066  0.09150923  0.70463988     0.31800
H606        H  0.14001712  0.10639406  0.71951437     0.34600
C607        C  0.37222450  0.10219698  0.95942285     0.20200
C608        C  0.36871504  0.07440695  0.95571921    -0.39700
C609        C  0.39528976  0.07547468  0.95011865     0.19100
C610        C  0.42325781  0.10218416  0.94840450     0.21800
C611        C  0.42678533  0.13003842  0.95212281    -0.40200
C612        C  0.40014460  0.12895369  0.95770904     0.20600
N613        N  0.35039413  0.10712360  0.46484589    -0.33500
C614        C  0.36450660  0.13723999  0.96662667    -0.11100
C615        C  0.39555638  0.15167455  0.96232840    -0.29900
N616        N  0.44497211  0.09704034  0.94316700    -0.46500
C617        C  0.43060580  0.06687249  0.94154675    -0.05700
C618        C  0.39965195  0.05264450  0.94570480    -0.23100
H619        H  0.34690095  0.05349834  0.45711310     0.18700
H620        H  0.44860665  0.15095536  0.95081839     0.17500
H621        H  0.41242820  0.17551194  0.96244373     0.13800
H622        H  0.38268758  0.02884702  0.94579928     0.13600
H623        H  0.32736839  0.09101363  0.46715457     0.31800
H624        H  0.46808079  0.11301111  0.94101373     0.34600
C625        C  0.40329854  0.32465302  0.96658553     0.20200
C626        C  0.37920978  0.30127338  0.98228366    -0.39700
C627        C  0.37870908  0.27504161  0.98005342     0.19100
C628        C  0.40096456  0.27264936  0.96405265     0.21800
C629        C  0.42525637  0.29614840  0.94870580    -0.40200
C630        C  0.42529658  0.32203914  0.95027048     0.20600
N631        N  0.40748503  0.35085811  0.96309384    -0.33500
C632        C  0.43195691  0.36464162  0.94403291    -0.11100
C633        C  0.44374989  0.34747694  0.93555641    -0.29900
N634        N  0.39416058  0.24475401  0.96341418    -0.46500
C635        C  0.36710492  0.22910934  0.97856487    -0.05700
C636        C  0.35679516  0.24723072  0.48950694    -0.23100
H637        H  0.36136049  0.30283151  0.49405519     0.18700
H638        H  0.44197348  0.29384126  0.93524504     0.17500
H639        H  0.46260815  0.35249109  0.91996524     0.13800
H640        H  0.33547470  0.24056613  0.50134978     0.13600
H641        H  0.39384192  0.35832708  0.97206926     0.31800
H642        H  0.40635684  0.23646105  0.95196474     0.34600
C643        C  0.22594777  0.12112474  0.97821788     0.20200
C644        C  0.20052623  0.12229092  0.48161214    -0.39700
C645        C  0.17533691  0.09802770  0.96798516     0.19100
C646        C  0.17563264  0.07460929  0.95192883     0.21800
C647        C  0.20065034  0.07289300  0.94948630    -0.40200
C648        C  0.22571981  0.09700392  0.96331228     0.20600
N649        N  0.25353425  0.14270894  0.48644669    -0.33500
C650        C  0.27086648  0.13209888  0.97691214    -0.11100
C651        C  0.25422655  0.10350931  0.96273497    -0.29900
N652        N  0.15030282  0.05622118  0.93820009    -0.46500
C653        C  0.13366259  0.06783979  0.94582174    -0.05700
C654        C  0.14825911  0.09363737  0.96472441    -0.23100
H655        H  0.20079832  0.14134881  0.49280780     0.18700
H656        H  0.20107871  0.05486154  0.93655257     0.17500
H657        H  0.26236709  0.09016473  0.95178210     0.13800
H658        H  0.14093530  0.10828574  0.97323508     0.13600
H659        H  0.26035936  0.16370869  0.49704795     0.31800
H660        H  0.14501989  0.03744235  0.92385209     0.34600
C661        C  0.34866903  0.65225197  0.97217916     0.80000
N662        N  0.31826827  0.63592086  0.97373891    -0.78300
C663        C  0.30352868  0.64976579  0.97857024     0.82500
N664        N  0.31940992  0.68015479  0.98161331    -0.78200
C665        C  0.34986865  0.69657805  0.97958134     0.82600
N666        N  0.36437385  0.68254938  0.97462501    -0.79900
C667        C  0.34655106  0.65135430  0.22065281     0.80000
N668        N  0.36278245  0.68168629  0.22247625    -0.78300
C669        C  0.34887821  0.69630159  0.22777152     0.82500
N670        N  0.31846218  0.68042068  0.23072667    -0.80000
C671        C  0.30201600  0.64999558  0.22829540     0.82600
N672        N  0.31615308  0.63553894  0.22318702    -0.79900
C673        C  0.15079925  0.84564581  0.32418964     0.80000
N674        N  0.13492930  0.81532434  0.32191461    -0.78300
C675        C  0.14924909  0.80110109  0.31668396     0.82500
N676        N  0.17970634  0.81737330  0.31396311    -0.78200
C677        C  0.19573174  0.84777685  0.31668667     0.82600
N678        N  0.18117852  0.86179846  0.32200194    -0.79900
C679        C  0.14976802  0.84590561  0.06916701     0.80000
N680        N  0.13334690  0.81554552  0.06812985    -0.78300
C681        C  0.14726027  0.80090358  0.06460561     0.82500
N682        N  0.17767763  0.81676503  0.06260783    -0.78200
C683        C  0.19415720  0.84713778  0.06431913     0.82600
N684        N  0.18011062  0.86159161  0.06773793    -0.79900
N685        N  0.06397930  0.54861336  0.42691106    -0.06300
N686        N  0.08375228  0.56002658  0.44670547    -0.58400
N687        N  0.04860112  0.56302413  0.36691199    -0.06000
N688        N  0.05884231  0.58247834  0.34709115    -0.60500
N689        N  0.03853087  0.57159256  0.39108268    -0.05600
N690        N  0.04125517  0.59677988  0.38812554    -0.58400
N691        N  0.07310073  0.53897577  0.40281137    -0.05300
N692        N  0.09906343  0.54318441  0.40586080    -0.60900
C693        C  0.10531031  0.55620218  0.43335894     0.95900
C694        C  0.05382665  0.60318541  0.36059956     0.95700
N695        N  0.49440316  0.97763950  0.32561735    -0.06500
N696        N  0.48146750  0.97192711  0.30129523    -0.59000
N697        N  0.04502819  0.97976567  0.36145141    -0.04600
N698        N  0.06723251  0.97611829  0.35966543    -0.60300
N699        N  0.01908172  0.95369649  0.36125840    -0.06500
N700        N  0.02302583  0.93169984  0.35926327    -0.59300
N701        N  0.02035358  0.50373227  0.32560429    -0.04200
N702        N  0.02565683  0.51636370  0.30120498    -0.60300
Mn703      Mn  0.04771098  0.52177448  0.36355356     1.18400
C704        C  0.50123067  0.99623025  0.28633815     0.98000
C705        C  0.05312020  0.94606838  0.35837427     0.98600
N706        N  0.47983096  0.54343463  0.43236089    -0.06500
N707        N  0.47605242  0.56559322  0.43515773    -0.62800
N708        N  0.47810996  0.99299479  0.46764259    -0.05300
N709        N  0.47227371  0.98036560  0.49216703    -0.63500
N710        N  0.00412869  0.51905306  0.46782264    -0.06000
N711        N  0.01654504  0.52473767  0.49249653    -0.63100
N712        N  0.45381322  0.51744854  0.43228970    -0.04900
N713        N  0.43169686  0.52133299  0.43514780    -0.63800
Mn714      Mn  0.02201819  0.54649930  0.43013203     1.10700
C715        C  0.44596261  0.55142996  0.43679555     0.99200
C716        C  0.49642121  0.00043065  0.00737710     0.99300
N717        N  0.45972944  0.92515811  0.40206473    -0.06100
N718        N  0.45605014  0.89945966  0.40474064    -0.61400
N719        N  0.42592445  0.95838546  0.39030633    -0.05400
N720        N  0.40002524  0.95422319  0.38715370    -0.58200
N721        N  0.43502701  0.94858920  0.36631270    -0.06700
N722        N  0.41534891  0.93717458  0.34645415    -0.61000
N723        N  0.44947514  0.93369004  0.42611675    -0.05700
N724        N  0.43817302  0.91372152  0.44558790    -0.58200
Mn725      Mn  0.47675073  0.95044771  0.36323216     1.20200
Mn726      Mn  0.45094390  0.97526280  0.42967907     1.10100
Cl727      Cl  0.49936926  0.99848149  0.39667868    -0.86100
C728        C  0.44272019  0.89273495  0.43198611     0.96200
C729        C  0.39386414  0.94112476  0.35968800     0.96000
N730        N  0.06264170  0.54810968  0.17718552    -0.06300
N731        N  0.08239242  0.55887931  0.19690818    -0.58400
N732        N  0.04725259  0.56312538  0.11759957    -0.06000
N733        N  0.05784471  0.58292872  0.09804689    -0.60500
N734        N  0.03721364  0.57159705  0.14187814    -0.05600
N735        N  0.04035996  0.59706577  0.13927125    -0.58400
N736        N  0.07148072  0.53841371  0.15292188    -0.05300
N737        N  0.09714022  0.54192097  0.15572516    -0.60900
C738        C  0.10356284  0.55457367  0.18326745     0.95900
C739        C  0.05312545  0.60376865  0.11184029     0.95700
N740        N  0.49294886  0.97770585  0.07593371    -0.06500
N741        N  0.48044304  0.97192042  0.05128523    -0.59000
N742        N  0.04365275  0.97962433  0.11137854    -0.04600
N743        N  0.06577243  0.97573294  0.10890074    -0.60300
N744        N  0.01762137  0.95365483  0.11134516    -0.06500
N745        N  0.02136787  0.93151985  0.10883201    -0.59300
N746        N  0.01892934  0.50378508  0.07603485    -0.04200
N747        N  0.02467857  0.51632644  0.05148244    -0.60300
Mn748      Mn  0.04622503  0.52167083  0.11387314     1.18400
C749        C  0.50050227  0.99620435  0.03634077     0.98000
C750        C  0.05143377  0.94562402  0.10742153     0.98600
N751        N  0.47814516  0.54298800  0.18340104    -0.06500
N752        N  0.47399717  0.56489395  0.18584138    -0.62800
N753        N  0.47734903  0.99285535  0.21841779    -0.05300
N754        N  0.47204723  0.98025902  0.24283741    -0.63500
N755        N  0.00329812  0.51896194  0.21836730    -0.06000
N756        N  0.01622704  0.52471532  0.24270702    -0.63100
N757        N  0.45224070  0.51687229  0.18351326    -0.04900
N758        N  0.42988905  0.52039496  0.18614607    -0.63800
Mn759      Mn  0.02071159  0.54629616  0.18078793     1.10700
C760        C  0.44383371  0.55042203  0.18747006     0.99200
C761        C  0.49647469  0.00041870  0.25768816     0.99300
N762        N  0.45893477  0.92519335  0.15265429    -0.06100
N763        N  0.45629969  0.90003353  0.15555535    -0.61400
N764        N  0.42447579  0.95807306  0.14141407    -0.05400
N765        N  0.39845879  0.95381674  0.13858965    -0.58200
N766        N  0.43345239  0.94838885  0.11723001    -0.06700
N767        N  0.41350494  0.93686701  0.09761605    -0.61000
N768        N  0.44890267  0.93371253  0.17688544    -0.05700
N769        N  0.43878816  0.91427714  0.19668943    -0.58200
Mn770      Mn  0.47533754  0.95039994  0.11368870     1.20200
Mn771      Mn  0.44982567  0.97496414  0.18064528     1.10100
Cl772      Cl  0.49799730  0.99835683  0.14721918    -0.86100
C773        C  0.44382311  0.89361559  0.18311806     0.96200
C774        C  0.39203191  0.94072109  0.11116028     0.96000
C775        C  0.09217456  0.67217672  0.07758483     0.20200
C776        C  0.11604778  0.69545123  0.06159975    -0.39700
C777        C  0.11735860  0.72218046  0.06489937     0.19100
C778        C  0.09607020  0.72523338  0.08220254     0.21800
C779        C  0.07201253  0.70185976  0.09794670    -0.40200
C780        C  0.07112732  0.67537925  0.09521884     0.20600
N781        N  0.08749476  0.64554627  0.08018892    -0.33500
C782        C  0.06367396  0.63200337  0.10001583    -0.11100
C783        C  0.05274307  0.64979221  0.10980592    -0.29900
N784        N  0.10333383  0.75337200  0.08308602    -0.46500
C785        C  0.12968240  0.76843197  0.06665560    -0.05700
C786        C  0.13913310  0.74975891  0.05489001    -0.23100
H787        H  0.13314260  0.69337812  0.04868183     0.18700
H788        H  0.05600660  0.70457426  0.11234367     0.17500
H789        H  0.03462386  0.64514645  0.12627890     0.13800
H790        H  0.15973113  0.75585524  0.04178750     0.13600
H791        H  0.10054475  0.63768298  0.07020529     0.31800
H792        H  0.09183947  0.76213791  0.09522105     0.34600
C793        C  0.27080637  0.87412259  0.06747354     0.20200
C794        C  0.29566571  0.87222242  0.06562193    -0.39700
C795        C  0.32101236  0.89688820  0.07859999     0.19100
C796        C  0.32136555  0.92133049  0.09278738     0.21800
C797        C  0.29678006  0.92357288  0.09397371    -0.40200
C798        C  0.27159725  0.89910288  0.08061844     0.20600
N799        N  0.24331167  0.85269833  0.05900683    -0.33500
C800        C  0.22661078  0.86425967  0.06663604    -0.11100
C801        C  0.24354146  0.89327874  0.07982683    -0.29900
N802        N  0.34708236  0.94049506  0.10569798    -0.46500
C803        C  0.36328577  0.92830795  0.09930280    -0.05700
C804        C  0.34799530  0.90131922  0.08219730    -0.23100
H805        H  0.29497968  0.85256793  0.05570939     0.18700
H806        H  0.29687023  0.94247827  0.10534174     0.17500
H807        H  0.23583845  0.90742333  0.08923575     0.13800
H808        H  0.35498360  0.88620211  0.07485979     0.13600
H809        H  0.23612013  0.83123845  0.04947620     0.31800
H810        H  0.35300922  0.96028129  0.11854040     0.34600
C811        C  0.10025814  0.87025318  0.08132774     0.20200
C812        C  0.07265972  0.86726663  0.08530841    -0.39700
C813        C  0.07422292  0.89401999  0.09225364     0.19100
C814        C  0.10119049  0.92165534  0.09491943     0.21800
C815        C  0.12880243  0.92464283  0.09089946    -0.40200
C816        C  0.12723400  0.89787099  0.08396462     0.20600
N817        N  0.10481115  0.84818299  0.07524870    -0.33500
C818        C  0.13490979  0.86190505  0.07405160    -0.11100
C819        C  0.14966459  0.89288273  0.07920210    -0.29900
N820        N  0.09657357  0.94368477  0.10115050    -0.46500
C821        C  0.06646838  0.92986323  0.10241645    -0.05700
C822        C  0.05175698  0.89893730  0.09713512    -0.23100
H823        H  0.05154300  0.84571841  0.08324122     0.18700
H824        H  0.14991785  0.94618634  0.09301222     0.17500
H825        H  0.17353078  0.90943812  0.07997375     0.13800
H826        H  0.02788876  0.88237560  0.09640796     0.13600
H827        H  0.08847403  0.82524915  0.07246706     0.31800
H828        H  0.11284409  0.96665020  0.10401484     0.34600
C829        C  0.09738926  0.72464961  0.33111511     0.20200
C830        C  0.07243638  0.70073271  0.34549225    -0.39700
C831        C  0.07191046  0.67450070  0.34327955     0.19100
C832        C  0.09417115  0.67206295  0.32735140     0.21800
C833        C  0.11893120  0.69587417  0.31266987    -0.40200
C834        C  0.11982183  0.72234479  0.31545021     0.20600
N835        N  0.10450132  0.75271585  0.33221544    -0.33500
C836        C  0.13186878  0.76850609  0.31760761    -0.11100
C837        C  0.14212395  0.75033663  0.30665941    -0.29900
N838        N  0.08957305  0.64556190  0.33030292    -0.46500
C839        C  0.06456864  0.63134542  0.34864533    -0.05700
C840        C  0.05278966  0.64854395  0.35713932    -0.23100
H841        H  0.05550285  0.70289686  0.35866463     0.18700
H842        H  0.13691845  0.69437708  0.30119034     0.17500
H843        H  0.16354669  0.75700983  0.29505682     0.13800
H844        H  0.03366251  0.64331608  0.37241468     0.13600
H845        H  0.09216313  0.76094382  0.34344380     0.31800
H846        H  0.10340726  0.63823095  0.32161944     0.34600
C847        C  0.27338072  0.87632444  0.31518274     0.20200
C848        C  0.29866579  0.87495048  0.31182186    -0.39700
C849        C  0.32399103  0.89930908  0.32515299     0.19100
C850        C  0.32397385  0.92305283  0.34078245     0.21800
C851        C  0.29916165  0.92502399  0.34305618    -0.40200
C852        C  0.27393329  0.90077634  0.32963875     0.20600
N853        N  0.24557188  0.85456569  0.30768526    -0.33500
C854        C  0.22846162  0.86540649  0.31732439    -0.11100
C855        C  0.24544381  0.89430998  0.33070395    -0.29900
N856        N  0.34930539  0.94145958  0.35443569    -0.46500
C857        C  0.36565315  0.92951662  0.34717708    -0.05700
C858        C  0.35090279  0.90348742  0.32862381    -0.23100
H859        H  0.29813803  0.85561967  0.30106386     0.18700
H860        H  0.29893375  0.94326446  0.35575023     0.17500
H861        H  0.23752938  0.90785185  0.34164818     0.13800
H862        H  0.35800511  0.88858278  0.32051632     0.13600
H863        H  0.23845871  0.83329360  0.29765036     0.31800
H864        H  0.35476842  0.96044975  0.36850980     0.34600
C865        C  0.07627508  0.89573249  0.34665428     0.20200
C866        C  0.07287882  0.86799299  0.34100832    -0.39700
C867        C  0.09955407  0.86916752  0.33732695     0.19100
C868        C  0.12745548  0.89590885  0.33911862     0.21800
C869        C  0.13084894  0.92364864  0.34479728    -0.40200
C870        C  0.10417493  0.92248163  0.34847504     0.20600
N871        N  0.05446848  0.90071752  0.35044465    -0.33500
C872        C  0.06865286  0.93083615  0.35458541    -0.11100
C873        C  0.09962432  0.94520868  0.35360852    -0.29900
N874        N  0.14929466  0.89095814  0.33464380    -0.46500
C875        C  0.13515761  0.86085969  0.33000009    -0.05700
C876        C  0.10413354  0.84648765  0.33151304    -0.23100
H877        H  0.05110818  0.84707757  0.33943282     0.18700
H878        H  0.15263745  0.94458134  0.34608384     0.17500
H879        H  0.11650105  0.96904601  0.35588925     0.13800
H880        H  0.08725112  0.82268886  0.32867679     0.13600
H881        H  0.03143541  0.88468895  0.34984568     0.31800
H882        H  0.17237539  0.90706075  0.33475726     0.34600
C883        C  0.36938445  0.60061383  0.20769914     0.20200
C884        C  0.36592872  0.57283324  0.20485806    -0.39700
C885        C  0.39252237  0.57386615  0.19899594     0.19100
C886        C  0.42039225  0.60051887  0.19606733     0.21800
C887        C  0.42382716  0.62827122  0.19867792    -0.40200
C888        C  0.39726046  0.62724271  0.20472229     0.20600
N889        N  0.34769157  0.60574908  0.21372459    -0.33500
C890        C  0.36191709  0.63585697  0.21466015    -0.11100
C891        C  0.39283330  0.65003553  0.20916740    -0.29900
N892        N  0.44221296  0.59552691  0.19128301    -0.46500
C893        C  0.42810486  0.56550736  0.19121087    -0.05700
C894        C  0.39712094  0.55118996  0.19583878    -0.23100
H895        H  0.34419311  0.55200601  0.20738073     0.18700
H896        H  0.44559443  0.64913964  0.19656530     0.17500
H897        H  0.40976115  0.67380448  0.20855979     0.13800
H898        H  0.38031991  0.52748228  0.19721300     0.13600
H899        H  0.32466323  0.58977521  0.21710248     0.31800
H900        H  0.46526769  0.61154570  0.18853590     0.34600
C901        C  0.40103334  0.77251241  0.21273620     0.20200
C902        C  0.42547195  0.79609085  0.19756137    -0.39700
C903        C  0.42644102  0.82259146  0.20043365     0.19100
C904        C  0.40519732  0.82566670  0.21782804     0.21800
C905        C  0.38102700  0.80222640  0.23340757    -0.40200
C906        C  0.37954106  0.77540712  0.22981182     0.20600
N907        N  0.39342383  0.74423595  0.21113318    -0.33500
C908        C  0.36662449  0.72889209  0.22678959    -0.11100
C909        C  0.35725691  0.74754666  0.23891663    -0.29900
N910        N  0.40978655  0.85220689  0.21506812    -0.46500
C911        C  0.43367370  0.86573937  0.19531979    -0.05700
C912        C  0.44482880  0.84812735  0.18581126    -0.23100
H913        H  0.44153689  0.79342386  0.18321836     0.18700
H914        H  0.36371703  0.80417497  0.24598713     0.17500
H915        H  0.33637854  0.74128170  0.25152661     0.13800
H916        H  0.46293371  0.85273874  0.16933045     0.13600
H917        H  0.40499945  0.73558803  0.19892366     0.31800
H918        H  0.39652203  0.85992423  0.22473763     0.34600
C919        C  0.22504432  0.59831767  0.21458529     0.20200
C920        C  0.20070600  0.57284159  0.20105273    -0.39700
C921        C  0.17491264  0.57300103  0.20186705     0.19100
C922        C  0.17321768  0.59636781  0.21585634     0.21800
C923        C  0.19746559  0.62171068  0.22963149    -0.40200
C924        C  0.22352561  0.62190839  0.22814236     0.20600
N925        N  0.25286386  0.60479889  0.21437931    -0.33500
C926        C  0.26931545  0.63291373  0.22740490    -0.11100
C927        C  0.25177288  0.64428582  0.23645105    -0.29900
N928        N  0.14688409  0.59193135  0.21216480    -0.46500
C929        C  0.13201681  0.56591040  0.19523100    -0.05700
C930        C  0.14868551  0.55337115  0.18835729    -0.23100
H931        H  0.20225159  0.55492033  0.18948704     0.18700
H932        H  0.19657003  0.64050937  0.23953902     0.17500
H933        H  0.25904613  0.66644506  0.24641703     0.13800
H934        H  0.14285282  0.53323860  0.17448664     0.13600
H935        H  0.26053070  0.59150934  0.20463986     0.31800
H936        H  0.14001714  0.60639404  0.21951429     0.34600
C937        C  0.37222444  0.60219694  0.45942284     0.20200
C938        C  0.36871501  0.57440690  0.45571917    -0.39700
C939        C  0.39528975  0.57547466  0.45011859     0.19100
C940        C  0.42325782  0.60218418  0.44840445     0.21800
C941        C  0.42678528  0.63003841  0.45212281    -0.40200
C942        C  0.40014454  0.62895368  0.45770907     0.20600
N943        N  0.35039417  0.60712362  0.96484590    -0.33500
C944        C  0.36450655  0.63723999  0.46662670    -0.11100
C945        C  0.39555634  0.65167456  0.46232844    -0.29900
N946        N  0.44497212  0.59704035  0.44316697    -0.46500
C947        C  0.43060585  0.56687252  0.44154670    -0.05700
C948        C  0.39965199  0.55264450  0.44570475    -0.23100
H949        H  0.34690103  0.55349834  0.95711311     0.18700
H950        H  0.44860658  0.65095539  0.45081839     0.17500
H951        H  0.41242815  0.67551195  0.46244367     0.13800
H952        H  0.38268765  0.52884702  0.44579923     0.13600
H953        H  0.32736842  0.59101361  0.96715465     0.31800
H954        H  0.46808093  0.61301125  0.44101369     0.34600
C955        C  0.40329862  0.82465307  0.46658565     0.20200
C956        C  0.37920980  0.80127343  0.48228373    -0.39700
C957        C  0.37870907  0.77504164  0.48005341     0.19100
C958        C  0.40096451  0.77264936  0.46405261     0.21800
C959        C  0.42525635  0.79614840  0.44870578    -0.40200
C960        C  0.42529662  0.82203917  0.45027056     0.20600
N961        N  0.40748509  0.85085814  0.46309393    -0.33500
C962        C  0.43195692  0.86464160  0.44403291    -0.11100
C963        C  0.44374988  0.84747692  0.43555642    -0.29900
N964        N  0.39416052  0.74475401  0.46341413    -0.46500
C965        C  0.36710489  0.72910937  0.47856488    -0.05700
C966        C  0.35679519  0.74723074  0.98950701    -0.23100
H967        H  0.36136061  0.80283160  0.99405526     0.18700
H968        H  0.44197344  0.79384127  0.43524497     0.17500
H969        H  0.46260807  0.85249101  0.41996517     0.13800
H970        H  0.33547472  0.74056615  0.00134981     0.13600
H971        H  0.39384205  0.85832710  0.47206933     0.31800
H972        H  0.40635677  0.73646106  0.45196468     0.34600
C973        C  0.22594773  0.62112474  0.47821790     0.20200
C974        C  0.20052619  0.62229092  0.98161219    -0.39700
C975        C  0.17533692  0.59802777  0.46798512     0.19100
C976        C  0.17563260  0.57460932  0.45192889     0.21800
C977        C  0.20065024  0.57289295  0.44948640    -0.40200
C978        C  0.22571974  0.59700388  0.46331234     0.20600
N979        N  0.25353422  0.64270894  0.98644675    -0.33500
C980        C  0.27086644  0.63209889  0.47691210    -0.11100
C981        C  0.25422650  0.60350930  0.46273494    -0.29900
N982        N  0.15030275  0.55622115  0.43820015    -0.46500
C983        C  0.13366257  0.56783985  0.44582179    -0.05700
C984        C  0.14825913  0.59363746  0.46472438    -0.23100
H985        H  0.20079826  0.64134877  0.99280791     0.18700
H986        H  0.20107854  0.55486142  0.43655275     0.17500
H987        H  0.26236701  0.59016471  0.45178202     0.13800
H988        H  0.14093538  0.60828587  0.47323505     0.13600
H989        H  0.26035925  0.66370852  0.99704803     0.31800
H990        H  0.14501981  0.53744242  0.42385234     0.34600
C991        C  0.34866902  0.65225201  0.47217919     0.80000
N992        N  0.31826826  0.63592089  0.47373899    -0.78300
C993        C  0.30352868  0.64976581  0.47857023     0.82500
N994        N  0.31940990  0.68015482  0.48161328    -0.78200
C995        C  0.34986864  0.69657809  0.47958135     0.82600
N996        N  0.36437384  0.68254942  0.47462499    -0.79900
C997        C  0.34655105  0.65135425  0.72065271     0.80000
N998        N  0.36278243  0.68168624  0.72247625    -0.78300
C999        C  0.34887820  0.69630156  0.72777155     0.82500
N1000       N  0.31846216  0.68042063  0.73072668    -0.80000
C1001       C  0.30201598  0.64999552  0.72829530     0.82600
N1002       N  0.31615306  0.63553888  0.72318684    -0.79900
C1003       C  0.15079927  0.84564582  0.82418970     0.80000
N1004       N  0.13492932  0.81532434  0.82191466    -0.78300
C1005       C  0.14924911  0.80110109  0.81668402     0.82500
N1006       N  0.17970636  0.81737329  0.81396318    -0.78200
C1007       C  0.19573176  0.84777683  0.81668673     0.82600
N1008       N  0.18117854  0.86179845  0.82200198    -0.79900
C1009       C  0.14976803  0.84590564  0.56916706     0.80000
N1010       N  0.13334691  0.81554554  0.56812990    -0.78300
C1011       C  0.14726030  0.80090362  0.56460566     0.82500
N1012       N  0.17767765  0.81676508  0.56260788    -0.78200
C1013       C  0.19415722  0.84713783  0.56431917     0.82600
N1014       N  0.18011062  0.86159165  0.56773799    -0.79900
N1015       N  0.06397921  0.54861326  0.92691101    -0.06300
N1016       N  0.08375218  0.56002650  0.94670543    -0.58400
N1017       N  0.04860102  0.56302406  0.86691198    -0.06000
N1018       N  0.05884226  0.58247830  0.84709116    -0.60500
N1019       N  0.03853078  0.57159249  0.89108266    -0.05600
N1020       N  0.04125516  0.59677986  0.88812556    -0.58400
N1021       N  0.07310067  0.53897570  0.90281133    -0.05300
N1022       N  0.09906340  0.54318439  0.90586076    -0.60900
C1023       C  0.10531025  0.55620214  0.93335892     0.95900
C1024       C  0.05382666  0.60318541  0.86059959     0.95700
N1025       N  0.49440316  0.97763942  0.82561736    -0.06500
N1026       N  0.48146745  0.97192706  0.80129527    -0.59000
N1027       N  0.04502820  0.97976564  0.86145148    -0.04600
N1028       N  0.06723249  0.97611823  0.85966549    -0.60300
N1029       N  0.01908170  0.95369647  0.86125848    -0.06500
N1030       N  0.02302579  0.93169980  0.85926333    -0.59300
N1031       N  0.02035359  0.50373223  0.82560429    -0.04200
N1032       N  0.02565682  0.51636370  0.80120500    -0.60300
Mn1033     Mn  0.04771092  0.52177442  0.86355356     1.18400
C1034       C  0.50123062  0.99623019  0.78633819     0.98000
C1035       C  0.05312015  0.94606831  0.85837433     0.98600
N1036       N  0.47983096  0.54343467  0.93236090    -0.06500
N1037       N  0.47605240  0.56559326  0.93515777    -0.62800
N1038       N  0.47811003  0.99299482  0.96764255    -0.05300
N1039       N  0.47227379  0.98036561  0.99216697    -0.63500
N1040       N  0.00412868  0.51905311  0.96782264    -0.06000
N1041       N  0.01654502  0.52473773  0.99249654    -0.63100
N1042       N  0.45381323  0.51744858  0.93228972    -0.04900
N1043       N  0.43169686  0.52133301  0.93514785    -0.63800
Mn1044     Mn  0.02201814  0.54649926  0.93013198     1.10700
C1045       C  0.44596259  0.55142997  0.93679561     0.99200
C1046       C  0.49642115  0.00043062  0.50737713     0.99300
N1047       N  0.45972948  0.92515816  0.90206477    -0.06100
N1048       N  0.45605018  0.89945971  0.90474066    -0.61400
N1049       N  0.42592443  0.95838544  0.89030628    -0.05400
N1050       N  0.40002521  0.95422314  0.88715365    -0.58200
N1051       N  0.43502702  0.94858924  0.86631262    -0.06700
N1052       N  0.41534894  0.93717468  0.84645403    -0.61000
N1053       N  0.44947516  0.93369008  0.92611678    -0.05700
N1054       N  0.43817298  0.91372151  0.94558790    -0.58200
Mn1055     Mn  0.47675071  0.95044770  0.86323218     1.20200
Mn1056     Mn  0.45094391  0.97526281  0.92967907     1.10100
Cl1057     Cl  0.49936924  0.99848150  0.89667867    -0.86100
C1058       C  0.44272018  0.89273496  0.93198610     0.96200
C1059       C  0.39386414  0.94112479  0.85968793     0.96000
N1060       N  0.06264173  0.54810967  0.67718555    -0.06300
N1061       N  0.08239244  0.55887930  0.69690822    -0.58400
N1062       N  0.04725254  0.56312537  0.61759953    -0.06000
N1063       N  0.05784464  0.58292869  0.59804683    -0.60500
N1064       N  0.03721366  0.57159708  0.64187812    -0.05600
N1065       N  0.04036001  0.59706582  0.63927122    -0.58400
N1066       N  0.07148078  0.53841372  0.65292190    -0.05300
N1067       N  0.09714029  0.54192102  0.65572518    -0.60900
C1068       C  0.10356289  0.55457371  0.68326748     0.95900
C1069       C  0.05312544  0.60376865  0.61184023     0.95700
N1070       N  0.49294878  0.97770576  0.57593371    -0.06500
N1071       N  0.48044296  0.97192036  0.55128524    -0.59000
N1072       N  0.04365277  0.97962435  0.61137847    -0.04600
N1073       N  0.06577244  0.97573296  0.60890074    -0.60300
N1074       N  0.01762138  0.95365485  0.61134511    -0.06500
N1075       N  0.02136788  0.93151988  0.60883206    -0.59300
N1076       N  0.01892939  0.50378511  0.57603485    -0.04200
N1077       N  0.02467862  0.51632647  0.55148245    -0.60300
Mn1078     Mn  0.04622505  0.52167083  0.61387314     1.18400
C1079       C  0.50050220  0.99620430  0.53634080     0.98000
C1080       C  0.05143377  0.94562404  0.60742159     0.98600
N1081       N  0.47814515  0.54298799  0.68340095    -0.06500
N1082       N  0.47399715  0.56489393  0.68584134    -0.62800
N1083       N  0.47734900  0.99285531  0.71841781    -0.05300
N1084       N  0.47204716  0.98025899  0.74283745    -0.63500
N1085       N  0.00329806  0.51896188  0.71836732    -0.06000
N1086       N  0.01622696  0.52471527  0.74270706    -0.63100
N1087       N  0.45224070  0.51687227  0.68351316    -0.04900
N1088       N  0.42988905  0.52039494  0.68614602    -0.63800
Mn1089     Mn  0.02071159  0.54629617  0.68078793     1.10700
C1090       C  0.44383369  0.55042201  0.68747004     0.99200
C1091       C  0.49647463  0.00041865  0.75768821     0.99300
N1092       N  0.45893474  0.92519334  0.65265429    -0.06100
N1093       N  0.45629966  0.90003354  0.65555539    -0.61400
N1094       N  0.42447576  0.95807297  0.64141403    -0.05400
N1095       N  0.39845874  0.95381665  0.63858967    -0.58200
N1096       N  0.43345231  0.94838874  0.61722997    -0.06700
N1097       N  0.41350482  0.93686687  0.59761604    -0.61000
N1098       N  0.44890266  0.93371255  0.67688544    -0.05700
N1099       N  0.43878816  0.91427719  0.69668947    -0.58200
Mn1100     Mn  0.47533747  0.95039986  0.61368868     1.20200
Mn1101     Mn  0.44982566  0.97496412  0.68064524     1.10100
Cl1102     Cl  0.49799728  0.99835676  0.64721915    -0.86100
C1103       C  0.44382310  0.89361564  0.68311810     0.96200
C1104       C  0.39203183  0.94072097  0.61116033     0.96000
C1105       C  0.09217461  0.67217677  0.57758485     0.20200
C1106       C  0.11604781  0.69545127  0.56159976    -0.39700
C1107       C  0.11735863  0.72218050  0.56489941     0.19100
C1108       C  0.09607017  0.72523338  0.58220250     0.21800
C1109       C  0.07201248  0.70185974  0.59794664    -0.40200
C1110       C  0.07112734  0.67537927  0.59521885     0.20600
N1111       N  0.08749481  0.64554629  0.58018888    -0.33500
C1112       C  0.06367395  0.63200337  0.60001577    -0.11100
C1113       C  0.05274306  0.64979220  0.60980590    -0.29900
N1114       N  0.10333379  0.75337200  0.58308595    -0.46500
C1115       C  0.12968241  0.76843200  0.56665564    -0.05700
C1116       C  0.13913314  0.74975897  0.55489012    -0.23100
H1117       H  0.13314263  0.69337818  0.54868183     0.18700
H1118       H  0.05600644  0.70457413  0.61234354     0.17500
H1119       H  0.03462381  0.64514638  0.62627886     0.13800
H1120       H  0.15973120  0.75585532  0.54178765     0.13600
H1121       H  0.10054478  0.63768304  0.57020531     0.31800
H1122       H  0.09183935  0.76213788  0.59522090     0.34600
C1123       C  0.27080639  0.87412262  0.56747354     0.20200
C1124       C  0.29566573  0.87222245  0.56562188    -0.39700
C1125       C  0.32101236  0.89688824  0.57859993     0.19100
C1126       C  0.32136554  0.92133050  0.59278737     0.21800
C1127       C  0.29678004  0.92357288  0.59397378    -0.40200
C1128       C  0.27159724  0.89910287  0.58061851     0.20600
N1129       N  0.24331169  0.85269837  0.55900674    -0.33500
C1130       C  0.22661080  0.86425973  0.56663604    -0.11100
C1131       C  0.24354146  0.89327875  0.57982690    -0.29900
N1132       N  0.34708232  0.94049504  0.60569807    -0.46500
C1133       C  0.36328570  0.92830787  0.59930287    -0.05700
C1134       C  0.34799526  0.90131921  0.58219730    -0.23100
H1135       H  0.29497974  0.85256798  0.55570933     0.18700
H1136       H  0.29687019  0.94247824  0.60534189     0.17500
H1137       H  0.23583847  0.90742335  0.58923587     0.13800
H1138       H  0.35498351  0.88620206  0.57485979     0.13600
H1139       H  0.23612024  0.83123869  0.54947605     0.31800
H1140       H  0.35300913  0.96028111  0.61854049     0.34600
C1141       C  0.10025811  0.87025314  0.58132770     0.20200
C1142       C  0.07265972  0.86726663  0.58530843    -0.39700
C1143       C  0.07422292  0.89402000  0.59225362     0.19100
C1144       C  0.10119049  0.92165536  0.59491943     0.21800
C1145       C  0.12880241  0.92464282  0.59089947    -0.40200
C1146       C  0.12723396  0.89787097  0.58396459     0.20600
N1147       N  0.10481115  0.84818299  0.57524865    -0.33500
C1148       C  0.13490975  0.86190503  0.57405160    -0.11100
C1149       C  0.14966454  0.89288271  0.57920211    -0.29900
N1150       N  0.09657359  0.94368480  0.60115054    -0.46500
C1151       C  0.06646838  0.92986324  0.60241650    -0.05700
C1152       C  0.05175696  0.89893730  0.59713512    -0.23100
H1153       H  0.05154299  0.84571838  0.58324132     0.18700
H1154       H  0.14991782  0.94618633  0.59301230     0.17500
H1155       H  0.17353071  0.90943809  0.57997382     0.13800
H1156       H  0.02788874  0.88237560  0.59640798     0.13600
H1157       H  0.08847394  0.82524899  0.57246693     0.31800
H1158       H  0.11284409  0.96665024  0.60401491     0.34600
C1159       C  0.09738927  0.72464964  0.83111514     0.20200
C1160       C  0.07243643  0.70073277  0.84549236    -0.39700
C1161       C  0.07191051  0.67450075  0.84327965     0.19100
C1162       C  0.09417117  0.67206297  0.82735145     0.21800
C1163       C  0.11893119  0.69587417  0.81266987    -0.40200
C1164       C  0.11982181  0.72234479  0.81545016     0.20600
N1165       N  0.10450137  0.75271589  0.83221549    -0.33500
C1166       C  0.13186882  0.76850611  0.81760764    -0.11100
C1167       C  0.14212397  0.75033663  0.80665938    -0.29900
N1168       N  0.08957306  0.64556190  0.83030294    -0.46500
C1169       C  0.06456866  0.63134542  0.84864536    -0.05700
C1170       C  0.05278972  0.64854398  0.85713939    -0.23100
H1171       H  0.05550295  0.70289696  0.85866479     0.18700
H1172       H  0.13691845  0.69437708  0.80119037     0.17500
H1173       H  0.16354671  0.75700981  0.79505679     0.13800
H1174       H  0.03366259  0.64331611  0.87241479     0.13600
H1175       H  0.09216322  0.76094396  0.84344391     0.31800
H1176       H  0.10340723  0.63823091  0.82161948     0.34600
C1177       C  0.27338072  0.87632439  0.81518279     0.20200
C1178       C  0.29866580  0.87495045  0.81182190    -0.39700
C1179       C  0.32399107  0.89930911  0.82515293     0.19100
C1180       C  0.32397388  0.92305285  0.84078241     0.21800
C1181       C  0.29916170  0.92502403  0.84305609    -0.40200
C1182       C  0.27393332  0.90077636  0.82963870     0.20600
N1183       N  0.24557187  0.85456563  0.80768536    -0.33500
C1184       C  0.22846163  0.86540648  0.81732443    -0.11100
C1185       C  0.24544385  0.89431002  0.83070388    -0.29900
N1186       N  0.34930538  0.94145956  0.85443569    -0.46500
C1187       C  0.36565315  0.92951662  0.84717705    -0.05700
C1188       C  0.35090284  0.90348747  0.82862373    -0.23100
H1189       H  0.29813801  0.85561961  0.80106396     0.18700
H1190       H  0.29893384  0.94326455  0.85575007     0.17500
H1191       H  0.23752943  0.90785194  0.84164802     0.13800
H1192       H  0.35800520  0.88858285  0.82051624     0.13600
H1193       H  0.23845865  0.83329348  0.79765053     0.31800
H1194       H  0.35476843  0.96044975  0.86850983     0.34600
C1195       C  0.07627505  0.89573247  0.84665433     0.20200
C1196       C  0.07287876  0.86799297  0.84100837    -0.39700
C1197       C  0.09955403  0.86916752  0.83732700     0.19100
C1198       C  0.12745544  0.89590887  0.83911868     0.21800
C1199       C  0.13084893  0.92364867  0.84479734    -0.40200
C1200       C  0.10417490  0.92248163  0.84847510     0.20600
N1201       N  0.05446841  0.90071747  0.85044470    -0.33500
C1202       C  0.06865282  0.93083612  0.85458547    -0.11100
C1203       C  0.09962427  0.94520867  0.85360858    -0.29900
N1204       N  0.14929466  0.89095818  0.83464386    -0.46500
C1205       C  0.13515759  0.86085970  0.83000014    -0.05700
C1206       C  0.10413353  0.84648767  0.83151308    -0.23100
H1207       H  0.05110811  0.84707754  0.83943287     0.18700
H1208       H  0.15263744  0.94458138  0.84608391     0.17500
H1209       H  0.11650099  0.96904600  0.85588932     0.13800
H1210       H  0.08725110  0.82268887  0.82867682     0.13600
H1211       H  0.03143547  0.88468896  0.84984571     0.31800
H1212       H  0.17237525  0.90706073  0.83475735     0.34600
C1213       C  0.36938450  0.60061383  0.70769903     0.20200
C1214       C  0.36592878  0.57283325  0.70485796    -0.39700
C1215       C  0.39252244  0.57386618  0.69899596     0.19100
C1216       C  0.42039236  0.60051894  0.69606738     0.21800
C1217       C  0.42382725  0.62827127  0.69867793    -0.40200
C1218       C  0.39726052  0.62724272  0.70472220     0.20600
N1219       N  0.34769163  0.60574908  0.71372453    -0.33500
C1220       C  0.36191710  0.63585694  0.71466009    -0.11100
C1221       C  0.39283330  0.65003550  0.70916735    -0.29900
N1222       N  0.44221300  0.59552692  0.69128309    -0.46500
C1223       C  0.42810491  0.56550740  0.69121092    -0.05700
C1224       C  0.39712098  0.55118998  0.69583883    -0.23100
H1225       H  0.34419318  0.55200600  0.70738061     0.18700
H1226       H  0.44559454  0.64913971  0.69656540     0.17500
H1227       H  0.40976115  0.67380447  0.70855983     0.13800
H1228       H  0.38031997  0.52748229  0.69721298     0.13600
H1229       H  0.32466328  0.58977516  0.71710248     0.31800
H1230       H  0.46526794  0.61154587  0.68853593     0.34600
C1231       C  0.40103340  0.77251243  0.71273622     0.20200
C1232       C  0.42547200  0.79609092  0.69756139    -0.39700
C1233       C  0.42644105  0.82259152  0.70043368     0.19100
C1234       C  0.40519734  0.82566673  0.71782806     0.21800
C1235       C  0.38102703  0.80222641  0.73340760    -0.40200
C1236       C  0.37954113  0.77540715  0.72981187     0.20600
N1237       N  0.39342382  0.74423598  0.71113318    -0.33500
C1238       C  0.36662453  0.72889208  0.72678956    -0.11100
C1239       C  0.35725698  0.74754667  0.73891664    -0.29900
N1240       N  0.40978652  0.85220690  0.71506811    -0.46500
C1241       C  0.43367367  0.86573940  0.69531981    -0.05700
C1242       C  0.44482877  0.84812740  0.68581125    -0.23100
H1243       H  0.44153694  0.79342397  0.68321833     0.18700
H1244       H  0.36371702  0.80417493  0.74598710     0.17500
H1245       H  0.33637861  0.74128168  0.75152662     0.13800
H1246       H  0.46293364  0.85273880  0.66933040     0.13600
H1247       H  0.40499953  0.73558796  0.69892351     0.31800
H1248       H  0.39652197  0.85992416  0.72473757     0.34600
C1249       C  0.22504428  0.59831768  0.71458527     0.20200
C1250       C  0.20070597  0.57284161  0.70105274    -0.39700
C1251       C  0.17491260  0.57300102  0.70186712     0.19100
C1252       C  0.17321765  0.59636778  0.71585642     0.21800
C1253       C  0.19746559  0.62171070  0.72963146    -0.40200
C1254       C  0.22352560  0.62190840  0.72814229     0.20600
N1255       N  0.25286381  0.60479884  0.71437928    -0.33500
C1256       C  0.26931542  0.63291371  0.72740484    -0.11100
C1257       C  0.25177287  0.64428581  0.73645099    -0.29900
N1258       N  0.14688408  0.59193136  0.71216488    -0.46500
C1259       C  0.13201682  0.56591042  0.69523105    -0.05700
C1260       C  0.14868551  0.55337116  0.68835731    -0.23100
H1261       H  0.20225155  0.55492036  0.68948698     0.18700
H1262       H  0.19657003  0.64050940  0.73953895     0.17500
H1263       H  0.25904613  0.66644503  0.74641702     0.13800
H1264       H  0.14285285  0.53323865  0.67448660     0.13600
H1265       H  0.26053057  0.59150930  0.70463988     0.31800
H1266       H  0.14001715  0.60639403  0.71951439     0.34600
C1267       C  0.37222455  0.60219700  0.95942284     0.20200
C1268       C  0.36871509  0.57440695  0.95571922    -0.39700
C1269       C  0.39528980  0.57547468  0.95011866     0.19100
C1270       C  0.42325788  0.60218417  0.94840451     0.21800
C1271       C  0.42678539  0.63003844  0.95212282    -0.40200
C1272       C  0.40014465  0.62895371  0.95770903     0.20600
N1273       N  0.35039410  0.60712361  0.46484588    -0.33500
C1274       C  0.36450661  0.63724000  0.96662667    -0.11100
C1275       C  0.39555640  0.65167456  0.96232839    -0.29900
N1276       N  0.44497214  0.59704031  0.94316701    -0.46500
C1277       C  0.43060583  0.56687248  0.94154675    -0.05700
C1278       C  0.39965199  0.55264448  0.94570482    -0.23100
H1279       H  0.34690096  0.55349827  0.45711307     0.18700
H1280       H  0.44860672  0.65095539  0.95081840     0.17500
H1281       H  0.41242821  0.67551197  0.96244371     0.13800
H1282       H  0.38268762  0.52884700  0.94579928     0.13600
H1283       H  0.32736824  0.59101355  0.46715456     0.31800
H1284       H  0.46808091  0.61301113  0.94101372     0.34600
C1285       C  0.40329859  0.82465303  0.96658554     0.20200
C1286       C  0.37920984  0.80127344  0.98228373    -0.39700
C1287       C  0.37870909  0.77504163  0.98005346     0.19100
C1288       C  0.40096451  0.77264933  0.96405264     0.21800
C1289       C  0.42525631  0.79614834  0.94870575    -0.40200
C1290       C  0.42529656  0.82203911  0.95027044     0.20600
N1291       N  0.40748506  0.85085813  0.96309385    -0.33500
C1292       C  0.43195690  0.86464159  0.94403283    -0.11100
C1293       C  0.44374984  0.84747689  0.93555633    -0.29900
N1294       N  0.39416052  0.74475398  0.96341416    -0.46500
C1295       C  0.36710491  0.72910933  0.97856492    -0.05700
C1296       C  0.35679517  0.74723078  0.48950697    -0.23100
H1297       H  0.36136052  0.80283153  0.49405522     0.18700
H1298       H  0.44197337  0.79384115  0.93524496     0.17500
H1299       H  0.46260807  0.85249101  0.91996514     0.13800
H1300       H  0.33547474  0.74056626  0.50134983     0.13600
H1301       H  0.39384209  0.85832710  0.97206925     0.31800
H1302       H  0.40635673  0.73646102  0.95196467     0.34600
C1303       C  0.22594768  0.62112471  0.97821789     0.20200
C1304       C  0.20052627  0.62229099  0.48161215    -0.39700
C1305       C  0.17533685  0.59802770  0.96798516     0.19100
C1306       C  0.17563254  0.57460926  0.95192889     0.21800
C1307       C  0.20065024  0.57289296  0.94948631    -0.40200
C1308       C  0.22571973  0.59700390  0.96331227     0.20600
N1309       N  0.25353427  0.64270895  0.48644670    -0.33500
C1310       C  0.27086642  0.63209888  0.97691213    -0.11100
C1311       C  0.25422649  0.60350932  0.96273493    -0.29900
N1312       N  0.15030268  0.55622110  0.93820019    -0.46500
C1313       C  0.13366251  0.56783980  0.94582179    -0.05700
C1314       C  0.14825908  0.59363742  0.96472437    -0.23100
H1315       H  0.20079837  0.64134888  0.49280784     0.18700
H1316       H  0.20107860  0.55486150  0.93655258     0.17500
H1317       H  0.26236705  0.59016476  0.95178205     0.13800
H1318       H  0.14093535  0.60828586  0.97323499     0.13600
H1319       H  0.26035939  0.66370865  0.49704794     0.31800
H1320       H  0.14501970  0.53744229  0.92385234     0.34600
C1321       C  0.84866902  0.15225200  0.97217916     0.80000
N1322       N  0.81826827  0.13592088  0.97373891    -0.78300
C1323       C  0.80352868  0.14976578  0.97857025     0.82500
N1324       N  0.81940989  0.18015479  0.98161331    -0.78200
C1325       C  0.84986862  0.19657806  0.97958133     0.82600
N1326       N  0.86437384  0.18254940  0.97462500    -0.79900
C1327       C  0.84655101  0.15135422  0.22065281     0.80000
N1328       N  0.86278240  0.18168623  0.22247626    -0.78300
C1329       C  0.84887818  0.19630155  0.22777151     0.82500
N1330       N  0.81846215  0.18042064  0.23072666    -0.80000
C1331       C  0.80201597  0.14999553  0.22829541     0.82600
N1332       N  0.81615303  0.13553888  0.22318703    -0.79900
C1333       C  0.65079925  0.34564586  0.32418965     0.80000
N1334       N  0.63492930  0.31532438  0.32191460    -0.78300
C1335       C  0.64924908  0.30110113  0.31668396     0.82500
N1336       N  0.67970633  0.31737333  0.31396310    -0.78200
C1337       C  0.69573174  0.34777688  0.31668667     0.82600
N1338       N  0.68117852  0.36179850  0.32200194    -0.79900
C1339       C  0.64976798  0.34590560  0.06916701     0.80000
N1340       N  0.63334687  0.31554551  0.06812985    -0.78300
C1341       C  0.64726025  0.30090358  0.06460562     0.82500
N1342       N  0.67767761  0.31676503  0.06260783    -0.78200
C1343       C  0.69415718  0.34713778  0.06431914     0.82600
N1344       N  0.68011059  0.36159161  0.06773794    -0.79900
N1345       N  0.56397925  0.04861325  0.42691106    -0.06300
N1346       N  0.58375227  0.06002654  0.44670546    -0.58400
N1347       N  0.54860119  0.06302414  0.36691201    -0.06000
N1348       N  0.55884237  0.08247834  0.34709116    -0.60500
N1349       N  0.53853094  0.07159258  0.39108268    -0.05600
N1350       N  0.54125525  0.09677990  0.38812554    -0.58400
N1351       N  0.57310068  0.03897564  0.40281139    -0.05300
N1352       N  0.59906343  0.04318436  0.40586080    -0.60900
C1353       C  0.60531031  0.05620215  0.43335894     0.95900
C1354       C  0.55382671  0.10318542  0.36059955     0.95700
N1355       N  0.99440317  0.47763947  0.32561735    -0.06500
N1356       N  0.98146750  0.47192709  0.30129523    -0.59000
N1357       N  0.54502819  0.47976568  0.36145143    -0.04600
N1358       N  0.56723250  0.47611828  0.35966544    -0.60300
N1359       N  0.51908171  0.45369651  0.36125842    -0.06500
N1360       N  0.52302580  0.43169984  0.35926327    -0.59300
N1361       N  0.52035357  0.00373229  0.32560429    -0.04200
N1362       N  0.52565680  0.01636373  0.30120498    -0.60300
Mn1363     Mn  0.54771097  0.02177444  0.36355356     1.18400
C1364       C  0.00123069  0.49623023  0.28633815     0.98000
C1365       C  0.55312016  0.44606837  0.35837428     0.98600
N1366       N  0.97983092  0.04343464  0.43236088    -0.06500
N1367       N  0.97605237  0.06559323  0.43515774    -0.62800
N1368       N  0.97811001  0.49299477  0.46764257    -0.05300
N1369       N  0.97227377  0.48036557  0.49216700    -0.63500
N1370       N  0.50412866  0.01905305  0.46782263    -0.06000
N1371       N  0.51654503  0.02473766  0.49249651    -0.63100
N1372       N  0.95381319  0.01744855  0.43228969    -0.04900
N1373       N  0.93169683  0.02133300  0.43514779    -0.63800
Mn1374     Mn  0.52201819  0.04649928  0.43013202     1.10700
C1375       C  0.94596256  0.05142996  0.43679556     0.99200
C1376       C  0.99642115  0.50043066  0.00737713     0.99300
N1377       N  0.95972943  0.42515811  0.40206472    -0.06100
N1378       N  0.95605019  0.39945970  0.40474069    -0.61400
N1379       N  0.92592443  0.45838551  0.39030633    -0.05400
N1380       N  0.90002521  0.45422323  0.38715370    -0.58200
N1381       N  0.93502700  0.44858925  0.36631269    -0.06700
N1382       N  0.91534889  0.43717463  0.34645415    -0.61000
N1383       N  0.94947508  0.43369003  0.42611671    -0.05700
N1384       N  0.93817296  0.41372151  0.44558788    -0.58200
Mn1385     Mn  0.97675072  0.45044772  0.36323216     1.20200
Mn1386     Mn  0.95094392  0.47526280  0.42967905     1.10100
Cl1387     Cl  0.99936929  0.49848151  0.39667868    -0.86100
C1388       C  0.94272020  0.39273497  0.43198614     0.96200
C1389       C  0.89386411  0.44112478  0.35968801     0.96000
N1390       N  0.56264172  0.04810972  0.17718552    -0.06300
N1391       N  0.58239246  0.05887935  0.19690818    -0.58400
N1392       N  0.54725263  0.06312543  0.11759959    -0.06000
N1393       N  0.55784470  0.08292874  0.09804688    -0.60500
N1394       N  0.53721368  0.07159709  0.14187815    -0.05600
N1395       N  0.54035996  0.09706579  0.13927124    -0.58400
N1396       N  0.57148075  0.03841376  0.15292189    -0.05300
N1397       N  0.59714025  0.04192101  0.15572514    -0.60900
C1398       C  0.60356287  0.05457370  0.18326743     0.95900
C1399       C  0.55312540  0.10376864  0.11184026     0.95700
N1400       N  0.99294882  0.47770575  0.07593370    -0.06500
N1401       N  0.98044302  0.47192033  0.05128520    -0.59000
N1402       N  0.54365273  0.47962431  0.11137855    -0.04600
N1403       N  0.56577238  0.47573289  0.10890075    -0.60300
N1404       N  0.51762134  0.45365482  0.11134516    -0.06500
N1405       N  0.52136780  0.43151982  0.10883200    -0.59300
N1406       N  0.51892938  0.00378519  0.07603486    -0.04200
N1407       N  0.52467860  0.01632654  0.05148244    -0.60300
Mn1408     Mn  0.54622504  0.02167087  0.11387315     1.18400
C1409       C  0.00050224  0.49620426  0.03634076     0.98000
C1410       C  0.55143370  0.44562397  0.10742152     0.98600
N1411       N  0.97814513  0.04298798  0.18340103    -0.06500
N1412       N  0.97399714  0.06489392  0.18584138    -0.62800
N1413       N  0.97734906  0.49285538  0.21841781    -0.05300
N1414       N  0.97204723  0.48025905  0.24283743    -0.63500
N1415       N  0.50329805  0.01896196  0.21836731    -0.06000
N1416       N  0.51622695  0.02471537  0.24270706    -0.63100
N1417       N  0.95224066  0.01687226  0.18351327    -0.04900
N1418       N  0.92988903  0.02039494  0.18614608    -0.63800
Mn1419     Mn  0.52071157  0.04629618  0.18078794     1.10700
C1420       C  0.94383369  0.05042201  0.18747007     0.99200
C1421       C  0.99647474  0.50041868  0.25768816     0.99300
N1422       N  0.95893473  0.42519331  0.15265429    -0.06100
N1423       N  0.95629956  0.40003346  0.15555534    -0.61400
N1424       N  0.92447577  0.45807303  0.14141408    -0.05400
N1425       N  0.89845876  0.45381670  0.13858965    -0.58200
N1426       N  0.93345236  0.44838882  0.11723002    -0.06700
N1427       N  0.91350493  0.43686699  0.09761604    -0.61000
N1428       N  0.94890267  0.43371254  0.17688545    -0.05700
N1429       N  0.93878809  0.41427712  0.19668943    -0.58200
Mn1430     Mn  0.97533748  0.45039989  0.11368871     1.20200
Mn1431     Mn  0.94982570  0.47496417  0.18064529     1.10100
Cl1432     Cl  0.99799732  0.49835681  0.14721917    -0.86100
C1433       C  0.94382298  0.39361554  0.18311805     0.96200
C1434       C  0.89203189  0.44072104  0.11116028     0.96000
C1435       C  0.59217462  0.17217676  0.07758485     0.20200
C1436       C  0.61604783  0.19545127  0.06159974    -0.39700
C1437       C  0.61735860  0.22218047  0.06489934     0.19100
C1438       C  0.59607018  0.22523338  0.08220251     0.21800
C1439       C  0.57201250  0.20185976  0.09794665    -0.40200
C1440       C  0.57112735  0.17537928  0.09521884     0.20600
N1441       N  0.58749479  0.14554629  0.08018894    -0.33500
C1442       C  0.56367394  0.13200338  0.10001581    -0.11100
C1443       C  0.55274308  0.14979225  0.10980592    -0.29900
N1444       N  0.60333382  0.25337200  0.08308603    -0.46500
C1445       C  0.62968237  0.26843198  0.06665561    -0.05700
C1446       C  0.63913307  0.24975893  0.05489001    -0.23100
H1447       H  0.63314268  0.19337820  0.04868184     0.18700
H1448       H  0.55600651  0.20457421  0.11234358     0.17500
H1449       H  0.53462385  0.14514651  0.12627887     0.13800
H1450       H  0.65973112  0.25585530  0.04178752     0.13600
H1451       H  0.60054477  0.13768297  0.07020531     0.31800
H1452       H  0.59183945  0.26213786  0.09522110     0.34600
C1453       C  0.77080638  0.37412264  0.06747354     0.20200
C1454       C  0.79566572  0.37222246  0.06562191    -0.39700
C1455       C  0.82101234  0.39688823  0.07859999     0.19100
C1456       C  0.82136555  0.42133051  0.09278736     0.21800
C1457       C  0.79678006  0.42357289  0.09397371    -0.40200
C1458       C  0.77159724  0.39910290  0.08061843     0.20600
N1459       N  0.74331166  0.35269834  0.05900681    -0.33500
C1460       C  0.72661077  0.36425971  0.06663605    -0.11100
C1461       C  0.74354145  0.39327878  0.07982683    -0.29900
N1462       N  0.84708238  0.44049509  0.10569798    -0.46500
C1463       C  0.86328575  0.42830792  0.09930279    -0.05700
C1464       C  0.84799525  0.40131919  0.08219731    -0.23100
H1465       H  0.79497975  0.35256801  0.05570936     0.18700
H1466       H  0.79687019  0.44247826  0.10534175     0.17500
H1467       H  0.73583848  0.40742340  0.08923576     0.13800
H1468       H  0.85498348  0.38620202  0.07485983     0.13600
H1469       H  0.73612021  0.33123863  0.04947624     0.31800
H1470       H  0.85300924  0.46028126  0.11854035     0.34600
C1471       C  0.60025808  0.37025319  0.08132774     0.20200
C1472       C  0.57265968  0.36726666  0.08530842    -0.39700
C1473       C  0.57422289  0.39402002  0.09225365     0.19100
C1474       C  0.60119044  0.42165537  0.09491943     0.21800
C1475       C  0.62880237  0.42464284  0.09089947    -0.40200
C1476       C  0.62723394  0.39787100  0.08396462     0.20600
N1477       N  0.60481108  0.34818300  0.07524869    -0.33500
C1478       C  0.63490973  0.36190505  0.07405158    -0.11100
C1479       C  0.64966453  0.39288275  0.07920209    -0.29900
N1480       N  0.59657352  0.44368479  0.10115049    -0.46500
C1481       C  0.56646830  0.42986320  0.10241644    -0.05700
C1482       C  0.55175692  0.39893728  0.09713512    -0.23100
H1483       H  0.55154295  0.34571845  0.08324125     0.18700
H1484       H  0.64991779  0.44618634  0.09301224     0.17500
H1485       H  0.67353071  0.40943815  0.07997375     0.13800
H1486       H  0.52788871  0.38237556  0.09640798     0.13600
H1487       H  0.58847391  0.32524914  0.07246705     0.31800
H1488       H  0.61284396  0.46665023  0.10401483     0.34600
C1489       C  0.59738927  0.22464963  0.33111511     0.20200
C1490       C  0.57243639  0.20073272  0.34549227    -0.39700
C1491       C  0.57191048  0.17450070  0.34327957     0.19100
C1492       C  0.59417118  0.17206296  0.32735139     0.21800
C1493       C  0.61893122  0.19587419  0.31266984    -0.40200
C1494       C  0.61982185  0.22234481  0.31545019     0.20600
N1495       N  0.60450134  0.25271589  0.33221545    -0.33500
C1496       C  0.63186880  0.26850613  0.31760761    -0.11100
C1497       C  0.64212397  0.25033668  0.30665943    -0.29900
N1498       N  0.58957308  0.14556192  0.33030291    -0.46500
C1499       C  0.56456869  0.13134541  0.34864530    -0.05700
C1500       C  0.55278968  0.14854392  0.35713930    -0.23100
H1501       H  0.55550287  0.20289688  0.35866466     0.18700
H1502       H  0.63691847  0.19437712  0.30119027     0.17500
H1503       H  0.66354672  0.25700987  0.29505684     0.13800
H1504       H  0.53366251  0.14331599  0.37241466     0.13600
H1505       H  0.59216316  0.26094389  0.34344383     0.31800
H1506       H  0.60340738  0.13823096  0.32161941     0.34600
C1507       C  0.77338072  0.37632439  0.31518276     0.20200
C1508       C  0.79866581  0.37495046  0.31182186    -0.39700
C1509       C  0.82399107  0.39930909  0.32515293     0.19100
C1510       C  0.82397387  0.42305283  0.34078242     0.21800
C1511       C  0.79916167  0.42502400  0.34305615    -0.40200
C1512       C  0.77393331  0.40077633  0.32963874     0.20600
N1513       N  0.74557188  0.35456567  0.30768531    -0.33500
C1514       C  0.72846162  0.36540647  0.31732439    -0.11100
C1515       C  0.74544383  0.39430998  0.33070393    -0.29900
N1516       N  0.84930539  0.44145956  0.35443568    -0.46500
C1517       C  0.86565315  0.42951662  0.34717708    -0.05700
C1518       C  0.85090283  0.40348746  0.32862373    -0.23100
H1519       H  0.79813807  0.35561965  0.30106385     0.18700
H1520       H  0.79893377  0.44326447  0.35575019     0.17500
H1521       H  0.73752942  0.40785186  0.34164812     0.13800
H1522       H  0.85800518  0.38858284  0.32051617     0.13600
H1523       H  0.73845866  0.33329346  0.29765039     0.31800
H1524       H  0.85476845  0.46044974  0.36850981     0.34600
C1525       C  0.57627503  0.39573250  0.34665427     0.20200
C1526       C  0.57287876  0.36799301  0.34100832    -0.39700
C1527       C  0.59955401  0.36916752  0.33732696     0.19100
C1528       C  0.62745541  0.39590884  0.33911863     0.21800
C1529       C  0.63084890  0.42364864  0.34479730    -0.40200
C1530       C  0.60417489  0.42248164  0.34847504     0.20600
N1531       N  0.55446843  0.40071754  0.35044464    -0.33500
C1532       C  0.56865282  0.43083616  0.35458541    -0.11100
C1533       C  0.59962428  0.44520869  0.35360852    -0.29900
N1534       N  0.64929464  0.39095817  0.33464380    -0.46500
C1535       C  0.63515757  0.36085970  0.33000008    -0.05700
C1536       C  0.60413351  0.34648766  0.33151304    -0.23100
H1537       H  0.55110811  0.34707759  0.33943281     0.18700
H1538       H  0.65263742  0.44458133  0.34608387     0.17500
H1539       H  0.61650100  0.46904602  0.35588926     0.13800
H1540       H  0.58725112  0.32268885  0.32867675     0.13600
H1541       H  0.53143534  0.38468901  0.34984568     0.31800
H1542       H  0.67237523  0.40706068  0.33475724     0.34600
C1543       C  0.86938449  0.10061382  0.20769910     0.20200
C1544       C  0.86592872  0.07283322  0.20485796    -0.39700
C1545       C  0.89252239  0.07386614  0.19899590     0.19100
C1546       C  0.92039230  0.10051891  0.19606731     0.21800
C1547       C  0.92382721  0.12827125  0.19867791    -0.40200
C1548       C  0.89726049  0.12724271  0.20472229     0.20600
N1549       N  0.84769154  0.10574902  0.21372458    -0.33500
C1550       C  0.86191709  0.13585695  0.21466015    -0.11100
C1551       C  0.89283327  0.15003551  0.20916739    -0.29900
N1552       N  0.94221297  0.09552692  0.19128302    -0.46500
C1553       C  0.92810488  0.06550738  0.19121088    -0.05700
C1554       C  0.89712094  0.05118994  0.19583877    -0.23100
H1555       H  0.84419312  0.05200599  0.20738056     0.18700
H1556       H  0.94559448  0.14913968  0.19656531     0.17500
H1557       H  0.90976109  0.17380447  0.20855975     0.13800
H1558       H  0.88031994  0.02748226  0.19721297     0.13600
H1559       H  0.82466344  0.08977528  0.21710242     0.31800
H1560       H  0.96526781  0.11154582  0.18853590     0.34600
C1561       C  0.90103337  0.27251242  0.21273621     0.20200
C1562       C  0.92547198  0.29609088  0.19756139    -0.39700
C1563       C  0.92644107  0.32259150  0.20043368     0.19100
C1564       C  0.90519736  0.32566671  0.21782803     0.21800
C1565       C  0.88102701  0.30222639  0.23340751    -0.40200
C1566       C  0.87954109  0.27540713  0.22981182     0.20600
N1567       N  0.89342383  0.24423596  0.21113319    -0.33500
C1568       C  0.86662449  0.22889208  0.22678957    -0.11100
C1569       C  0.85725692  0.24754667  0.23891664    -0.29900
N1570       N  0.90978655  0.35220690  0.21506815    -0.46500
C1571       C  0.93367371  0.36573939  0.19531982    -0.05700
C1572       C  0.94482884  0.34812740  0.18581128    -0.23100
H1573       H  0.94153691  0.29342390  0.18321834     0.18700
H1574       H  0.86371700  0.30417493  0.24598702     0.17500
H1575       H  0.83637857  0.24128174  0.25152662     0.13800
H1576       H  0.96293374  0.35273879  0.16933046     0.13600
H1577       H  0.90499952  0.23558800  0.19892361     0.31800
H1578       H  0.89652208  0.35992419  0.22473758     0.34600
C1579       C  0.72504430  0.09831768  0.21458530     0.20200
C1580       C  0.70070598  0.07284158  0.20105280    -0.39700
C1581       C  0.67491259  0.07300099  0.20186716     0.19100
C1582       C  0.67321762  0.09636775  0.21585643     0.21800
C1583       C  0.69746554  0.12171065  0.22963151    -0.40200
C1584       C  0.72352558  0.12190839  0.22814233     0.20600
N1585       N  0.75286385  0.10479888  0.21437930    -0.33500
C1586       C  0.76931542  0.13291373  0.22740489    -0.11100
C1587       C  0.75177286  0.14428581  0.23645103    -0.29900
N1588       N  0.64688406  0.09193134  0.21216482    -0.46500
C1589       C  0.63201682  0.06591042  0.19523099    -0.05700
C1590       C  0.64868551  0.05337115  0.18835732    -0.23100
H1591       H  0.70225159  0.05492034  0.18948709     0.18700
H1592       H  0.69656994  0.14050934  0.23953896     0.17500
H1593       H  0.75904612  0.16644505  0.24641704     0.13800
H1594       H  0.64285285  0.03323863  0.17448665     0.13600
H1595       H  0.76053070  0.09150939  0.20463991     0.31800
H1596       H  0.64001711  0.10639405  0.21951425     0.34600
C1597       C  0.87222451  0.10219699  0.45942284     0.20200
C1598       C  0.86871503  0.07440694  0.45571917    -0.39700
C1599       C  0.89528976  0.07547469  0.45011858     0.19100
C1600       C  0.92325783  0.10218417  0.44840445     0.21800
C1601       C  0.92678534  0.13003843  0.45212281    -0.40200
C1602       C  0.90014461  0.12895371  0.45770907     0.20600
N1603       N  0.85039412  0.10712363  0.96484590    -0.33500
C1604       C  0.86450660  0.13724000  0.46662670    -0.11100
C1605       C  0.89555638  0.15167457  0.46232844    -0.29900
N1606       N  0.94497211  0.09704033  0.44316698    -0.46500
C1607       C  0.93060582  0.06687251  0.44154670    -0.05700
C1608       C  0.89965197  0.05264452  0.44570474    -0.23100
H1609       H  0.84690102  0.05349834  0.95711309     0.18700
H1610       H  0.94860666  0.15095540  0.45081839     0.17500
H1611       H  0.91242818  0.17551197  0.46244368     0.13800
H1612       H  0.88268760  0.02884705  0.44579922     0.13600
H1613       H  0.82736826  0.09101356  0.96715464     0.31800
H1614       H  0.96808089  0.11301119  0.44101372     0.34600
C1615       C  0.90329860  0.32465306  0.46658565     0.20200
C1616       C  0.87920982  0.30127339  0.48228374    -0.39700
C1617       C  0.87870907  0.27504159  0.48005341     0.19100
C1618       C  0.90096450  0.27264930  0.46405261     0.21800
C1619       C  0.92525634  0.29614835  0.44870577    -0.40200
C1620       C  0.92529661  0.32203914  0.45027053     0.20600
N1621       N  0.90748508  0.35085811  0.46309392    -0.33500
C1622       C  0.93195690  0.36464160  0.44403293    -0.11100
C1623       C  0.94374986  0.34747690  0.43555641    -0.29900
N1624       N  0.89416052  0.24475394  0.46341414    -0.46500
C1625       C  0.86710488  0.22910930  0.47856489    -0.05700
C1626       C  0.85679518  0.24723076  0.98950700    -0.23100
H1627       H  0.86136057  0.30283156  0.99405525     0.18700
H1628       H  0.94197340  0.29384116  0.43524498     0.17500
H1629       H  0.96260805  0.35249100  0.41996515     0.13800
H1630       H  0.83547472  0.24056621  0.00134984     0.13600
H1631       H  0.89384194  0.35832712  0.47206937     0.31800
H1632       H  0.90635672  0.23646097  0.45196474     0.34600
C1633       C  0.72594776  0.12112473  0.47821790     0.20200
C1634       C  0.70052625  0.12229095  0.98161218    -0.39700
C1635       C  0.67533695  0.09802778  0.46798509     0.19100
C1636       C  0.67563262  0.07460931  0.45192887     0.21800
C1637       C  0.70065027  0.07289295  0.44948639    -0.40200
C1638       C  0.72571977  0.09700388  0.46331233     0.20600
N1639       N  0.75353427  0.14270894  0.98644673    -0.33500
C1640       C  0.77086647  0.13209886  0.47691210    -0.11100
C1641       C  0.75422652  0.10350929  0.46273492    -0.29900
N1642       N  0.65030276  0.05622114  0.43820020    -0.46500
C1643       C  0.63366258  0.06783982  0.44582179    -0.05700
C1644       C  0.64825916  0.09363747  0.46472435    -0.23100
H1645       H  0.70079831  0.14134880  0.99280791     0.18700
H1646       H  0.70107858  0.05486141  0.43655275     0.17500
H1647       H  0.76236706  0.09016472  0.45178200     0.13800
H1648       H  0.64093538  0.10828587  0.47323501     0.13600
H1649       H  0.76035937  0.16370862  0.99704803     0.31800
H1650       H  0.64501977  0.03744226  0.42385238     0.34600
C1651       C  0.84866903  0.15225196  0.47217919     0.80000
N1652       N  0.81826828  0.13592082  0.47373900    -0.78300
C1653       C  0.80352869  0.14976574  0.47857024     0.82500
N1654       N  0.81940990  0.18015474  0.48161329    -0.78200
C1655       C  0.84986864  0.19657802  0.47958135     0.82600
N1656       N  0.86437384  0.18254936  0.47462499    -0.79900
C1657       C  0.84655105  0.15135425  0.72065270     0.80000
N1658       N  0.86278244  0.18168624  0.72247627    -0.78300
C1659       C  0.84887820  0.19630154  0.72777152     0.82500
N1660       N  0.81846216  0.18042062  0.73072656    -0.80000
C1661       C  0.80201599  0.14999552  0.72829525     0.82600
N1662       N  0.81615307  0.13553888  0.72318685    -0.79900
C1663       C  0.65079927  0.34564583  0.82418970     0.80000
N1664       N  0.63492931  0.31532435  0.82191466    -0.78300
C1665       C  0.64924910  0.30110110  0.81668400     0.82500
N1666       N  0.67970634  0.31737329  0.81396316    -0.78200
C1667       C  0.69573175  0.34777683  0.81668672     0.82600
N1668       N  0.68117854  0.36179845  0.82200199    -0.79900
C1669       C  0.64976798  0.34590560  0.56916707     0.80000
N1670       N  0.63334688  0.31554551  0.56812990    -0.78300
C1671       C  0.64726027  0.30090359  0.56460565     0.82500
N1672       N  0.67767763  0.31676505  0.56260787    -0.78200
C1673       C  0.69415718  0.34713780  0.56431918     0.82600
N1674       N  0.68011058  0.36159161  0.56773799    -0.79900
N1675       N  0.56397927  0.04861332  0.92691099    -0.06300
N1676       N  0.58375225  0.06002656  0.94670541    -0.58400
N1677       N  0.54860110  0.06302412  0.86691198    -0.06000
N1678       N  0.55884233  0.08247836  0.84709116    -0.60500
N1679       N  0.53853084  0.07159254  0.89108266    -0.05600
N1680       N  0.54125523  0.09677991  0.88812557    -0.58400
N1681       N  0.57310069  0.03897569  0.90281134    -0.05300
N1682       N  0.59906339  0.04318432  0.90586079    -0.60900
C1683       C  0.60531027  0.05620213  0.93335892     0.95900
C1684       C  0.55382671  0.10318546  0.86059960     0.95700
N1685       N  0.99440317  0.47763945  0.82561736    -0.06500
N1686       N  0.98146747  0.47192711  0.80129528    -0.59000
N1687       N  0.54502820  0.47976567  0.86145147    -0.04600
N1688       N  0.56723252  0.47611829  0.85966549    -0.60300
N1689       N  0.51908172  0.45369648  0.86125847    -0.06500
N1690       N  0.52302584  0.43169984  0.85926333    -0.59300
N1691       N  0.52035357  0.00373220  0.82560428    -0.04200
N1692       N  0.52565680  0.01636365  0.80120498    -0.60300
Mn1693     Mn  0.54771094  0.02177443  0.86355356     1.18400
C1694       C  0.00123064  0.49623024  0.78633820     0.98000
C1695       C  0.55312020  0.44606838  0.85837433     0.98600
N1696       N  0.97983094  0.04343463  0.93236091    -0.06500
N1697       N  0.97605241  0.06559323  0.93515778    -0.62800
N1698       N  0.97811000  0.49299484  0.96764256    -0.05300
N1699       N  0.97227374  0.48036562  0.99216698    -0.63500
N1700       N  0.50412872  0.01905309  0.96782261    -0.06000
N1701       N  0.51654507  0.02473772  0.99249652    -0.63100
N1702       N  0.95381320  0.01744855  0.93228973    -0.04900
N1703       N  0.93169685  0.02133300  0.93514785    -0.63800
Mn1704     Mn  0.52201817  0.04649928  0.93013199     1.10700
C1705       C  0.94596261  0.05142997  0.93679561     0.99200
C1706       C  0.99642119  0.50043062  0.50737713     0.99300
N1707       N  0.95972946  0.42515814  0.90206475    -0.06100
N1708       N  0.95605015  0.39945968  0.90474064    -0.61400
N1709       N  0.92592448  0.45838544  0.89030625    -0.05400
N1710       N  0.90002526  0.45422315  0.88715362    -0.58200
N1711       N  0.93502701  0.44858915  0.86631262    -0.06700
N1712       N  0.91534889  0.43717451  0.84645407    -0.61000
N1713       N  0.94947519  0.43369009  0.92611678    -0.05700
N1714       N  0.93817306  0.41372155  0.94558793    -0.58200
Mn1715     Mn  0.97675071  0.45044768  0.86323216     1.20200
Mn1716     Mn  0.95094393  0.47526283  0.92967906     1.10100
Cl1717     Cl  0.99936923  0.49848145  0.89667869    -0.86100
C1718       C  0.94272023  0.39273498  0.93198611     0.96200
C1719       C  0.89386413  0.44112470  0.85968794     0.96000
N1720       N  0.56264170  0.04810968  0.67718556    -0.06300
N1721       N  0.58239242  0.05887933  0.69690823    -0.58400
N1722       N  0.54725257  0.06312538  0.61759954    -0.06000
N1723       N  0.55784460  0.08292867  0.59804682    -0.60500
N1724       N  0.53721371  0.07159709  0.64187814    -0.05600
N1725       N  0.54036003  0.09706582  0.63927124    -0.58400
N1726       N  0.57148075  0.03841376  0.65292190    -0.05300
N1727       N  0.59714028  0.04192108  0.65572517    -0.60900
C1728       C  0.60356287  0.05457375  0.68326747     0.95900
C1729       C  0.55312539  0.10376862  0.61184023     0.95700
N1730       N  0.99294882  0.47770580  0.57593373    -0.06500
N1731       N  0.98044300  0.47192041  0.55128527    -0.59000
N1732       N  0.54365276  0.47962436  0.61137847    -0.04600
N1733       N  0.56577243  0.47573296  0.60890074    -0.60300
N1734       N  0.51762138  0.45365487  0.61134512    -0.06500
N1735       N  0.52136784  0.43151988  0.60883207    -0.59300
N1736       N  0.51892931  0.00378508  0.57603487    -0.04200
N1737       N  0.52467854  0.01632647  0.55148248    -0.60300
Mn1738     Mn  0.54622502  0.02167083  0.61387314     1.18400
C1739       C  0.00050225  0.49620432  0.53634080     0.98000
C1740       C  0.55143374  0.44562404  0.60742160     0.98600
N1741       N  0.97814516  0.04298798  0.68340094    -0.06500
N1742       N  0.97399715  0.06489391  0.68584134    -0.62800
N1743       N  0.97734902  0.49285530  0.71841781    -0.05300
N1744       N  0.97204719  0.48025897  0.74283745    -0.63500
N1745       N  0.50329804  0.01896189  0.71836733    -0.06000
N1746       N  0.51622692  0.02471529  0.74270709    -0.63100
N1747       N  0.95224072  0.01687225  0.68351315    -0.04900
N1748       N  0.92988906  0.02039490  0.68614602    -0.63800
Mn1749     Mn  0.52071157  0.04629614  0.68078793     1.10700
C1750       C  0.94383369  0.05042198  0.68747004     0.99200
C1751       C  0.99647468  0.50041864  0.75768819     0.99300
N1752       N  0.95893477  0.42519337  0.65265430    -0.06100
N1753       N  0.95629968  0.40003356  0.65555538    -0.61400
N1754       N  0.92447578  0.45807302  0.64141404    -0.05400
N1755       N  0.89845877  0.45381669  0.63858967    -0.58200
N1756       N  0.93345235  0.44838880  0.61722998    -0.06700
N1757       N  0.91350486  0.43686692  0.59761604    -0.61000
N1758       N  0.94890271  0.43371258  0.67688546    -0.05700
N1759       N  0.93878818  0.41427720  0.69668947    -0.58200
Mn1760     Mn  0.97533749  0.45039991  0.61368869     1.20200
Mn1761     Mn  0.94982569  0.47496415  0.68064525     1.10100
Cl1762     Cl  0.99799731  0.49835679  0.64721916    -0.86100
C1763       C  0.94382308  0.39361562  0.68311809     0.96200
C1764       C  0.89203186  0.44072101  0.61116032     0.96000
C1765       C  0.59217459  0.17217673  0.57758484     0.20200
C1766       C  0.61604782  0.19545123  0.56159978    -0.39700
C1767       C  0.61735864  0.22218048  0.56489940     0.19100
C1768       C  0.59607019  0.22523338  0.58220252     0.21800
C1769       C  0.57201250  0.20185974  0.59794665    -0.40200
C1770       C  0.57112732  0.17537925  0.59521882     0.20600
N1771       N  0.58749477  0.14554624  0.58018890    -0.33500
C1772       C  0.56367391  0.13200334  0.60001577    -0.11100
C1773       C  0.55274304  0.14979219  0.60980586    -0.29900
N1774       N  0.60333381  0.25337199  0.58308597    -0.46500
C1775       C  0.62968241  0.26843198  0.56665563    -0.05700
C1776       C  0.63913314  0.24975894  0.55489007    -0.23100
H1777       H  0.63314262  0.19337810  0.54868188     0.18700
H1778       H  0.55600651  0.20457420  0.61234357     0.17500
H1779       H  0.53462379  0.14514643  0.62627880     0.13800
H1780       H  0.65973119  0.25585526  0.54178758     0.13600
H1781       H  0.60054473  0.13768295  0.57020534     0.31800
H1782       H  0.59183937  0.26213786  0.59522096     0.34600
C1783       C  0.77080636  0.37412262  0.56747354     0.20200
C1784       C  0.79566573  0.37222249  0.56562188    -0.39700
C1785       C  0.82101237  0.39688828  0.57859993     0.19100
C1786       C  0.82136556  0.42133055  0.59278737     0.21800
C1787       C  0.79678004  0.42357290  0.59397377    -0.40200
C1788       C  0.77159721  0.39910289  0.58061850     0.20600
N1789       N  0.74331166  0.35269837  0.55900678    -0.33500
C1790       C  0.72661076  0.36425970  0.56663607    -0.11100
C1791       C  0.74354142  0.39327876  0.57982691    -0.29900
N1792       N  0.84708234  0.44049506  0.60569805    -0.46500
C1793       C  0.86328573  0.42830792  0.59930286    -0.05700
C1794       C  0.84799527  0.40131924  0.58219730    -0.23100
H1795       H  0.79497975  0.35256802  0.55570934     0.18700
H1796       H  0.79687016  0.44247825  0.60534188     0.17500
H1797       H  0.73583842  0.40742335  0.58923584     0.13800
H1798       H  0.85498351  0.38620208  0.57485983     0.13600
H1799       H  0.73612017  0.33123856  0.54947607     0.31800
H1800       H  0.85300917  0.46028123  0.61854053     0.34600
C1801       C  0.60025808  0.37025315  0.58132774     0.20200
C1802       C  0.57265969  0.36726666  0.58530844    -0.39700
C1803       C  0.57422290  0.39402003  0.59225361     0.19100
C1804       C  0.60119045  0.42165536  0.59491942     0.21800
C1805       C  0.62880237  0.42464283  0.59089946    -0.40200
C1806       C  0.62723394  0.39787098  0.58396458     0.20600
N1807       N  0.60481109  0.34818298  0.57524877    -0.33500
C1808       C  0.63490971  0.36190501  0.57405165    -0.11100
C1809       C  0.64966454  0.39288272  0.57920211    -0.29900
N1810       N  0.59657355  0.44368481  0.60115055    -0.46500
C1811       C  0.56646833  0.42986324  0.60241651    -0.05700
C1812       C  0.55175693  0.39893731  0.59713513    -0.23100
H1813       H  0.55154296  0.34571843  0.58324133     0.18700
H1814       H  0.64991779  0.44618633  0.59301230     0.17500
H1815       H  0.67353073  0.40943809  0.57997380     0.13800
H1816       H  0.52788871  0.38237560  0.59640803     0.13600
H1817       H  0.58847385  0.32524899  0.57246716     0.31800
H1818       H  0.61284398  0.46665019  0.60401493     0.34600
C1819       C  0.59738930  0.22464967  0.83111513     0.20200
C1820       C  0.57243644  0.20073281  0.84549232    -0.39700
C1821       C  0.57191049  0.17450077  0.84327962     0.19100
C1822       C  0.59417117  0.17206299  0.82735145     0.21800
C1823       C  0.61893119  0.19587418  0.81266988    -0.40200
C1824       C  0.61982183  0.22234481  0.81545018     0.20600
N1825       N  0.60450139  0.25271592  0.83221549    -0.33500
C1826       C  0.63186882  0.26850612  0.81760763    -0.11100
C1827       C  0.64212397  0.25033666  0.80665939    -0.29900
N1828       N  0.58957307  0.14556196  0.83030298    -0.46500
C1829       C  0.56456868  0.13134546  0.84864537    -0.05700
C1830       C  0.55278969  0.14854399  0.85713936    -0.23100
H1831       H  0.55550296  0.20289702  0.85866471     0.18700
H1832       H  0.63691843  0.19437705  0.80119039     0.17500
H1833       H  0.66354671  0.25700985  0.79505679     0.13800
H1834       H  0.53366254  0.14331611  0.87241473     0.13600
H1835       H  0.59216325  0.26094398  0.84344391     0.31800
H1836       H  0.60340734  0.13823095  0.82161950     0.34600
C1837       C  0.77338070  0.37632438  0.81518279     0.20200
C1838       C  0.79866578  0.37495044  0.81182188    -0.39700
C1839       C  0.82399105  0.39930908  0.82515293     0.19100
C1840       C  0.82397385  0.42305282  0.84078242     0.21800
C1841       C  0.79916167  0.42502402  0.84305610    -0.40200
C1842       C  0.77393328  0.40077632  0.82963873     0.20600
N1843       N  0.74557186  0.35456562  0.80768532    -0.33500
C1844       C  0.72846161  0.36540645  0.81732441    -0.11100
C1845       C  0.74544381  0.39430996  0.83070391    -0.29900
N1846       N  0.84930536  0.44145951  0.85443573    -0.46500
C1847       C  0.86565314  0.42951658  0.84717705    -0.05700
C1848       C  0.85090282  0.40348744  0.82862370    -0.23100
H1849       H  0.79813800  0.35561961  0.80106390     0.18700
H1850       H  0.79893382  0.44326455  0.85575006     0.17500
H1851       H  0.73752938  0.40785186  0.84164806     0.13800
H1852       H  0.85800517  0.38858283  0.82051617     0.13600
H1853       H  0.73845868  0.33329352  0.79765045     0.31800
H1854       H  0.85476837  0.46044965  0.86850989     0.34600
C1855       C  0.57627512  0.39573251  0.84665433     0.20200
C1856       C  0.57287882  0.36799300  0.84100837    -0.39700
C1857       C  0.59955409  0.36916756  0.83732701     0.19100
C1858       C  0.62745549  0.39590888  0.83911868     0.21800
C1859       C  0.63084898  0.42364868  0.84479734    -0.40200
C1860       C  0.60417496  0.42248167  0.84847509     0.20600
N1861       N  0.55446849  0.40071753  0.85044470    -0.33500
C1862       C  0.56865289  0.43083618  0.85458547    -0.11100
C1863       C  0.59962434  0.44520872  0.85360858    -0.29900
N1864       N  0.64929471  0.39095819  0.83464386    -0.46500
C1865       C  0.63515763  0.36085972  0.83000014    -0.05700
C1866       C  0.60413359  0.34648771  0.83151310    -0.23100
H1867       H  0.55110817  0.34707758  0.83943287     0.18700
H1868       H  0.65263748  0.44458140  0.84608392     0.17500
H1869       H  0.61650107  0.46904605  0.85588932     0.13800
H1870       H  0.58725116  0.32268892  0.82867685     0.13600
H1871       H  0.53143555  0.38468902  0.84984572     0.31800
H1872       H  0.67237529  0.40706074  0.83475733     0.34600
C1873       C  0.86938449  0.10061383  0.70769910     0.20200
C1874       C  0.86592874  0.07283324  0.70485801    -0.39700
C1875       C  0.89252239  0.07386614  0.69899596     0.19100
C1876       C  0.92039226  0.10051886  0.69606739     0.21800
C1877       C  0.92382720  0.12827122  0.69867795    -0.40200
C1878       C  0.89726049  0.12724270  0.70472225     0.20600
N1879       N  0.84769161  0.10574908  0.71372458    -0.33500
C1880       C  0.86191710  0.13585694  0.71466009    -0.11100
C1881       C  0.89283330  0.15003551  0.70916734    -0.29900
N1882       N  0.94221296  0.09552687  0.69128307    -0.46500
C1883       C  0.92810484  0.06550732  0.69121091    -0.05700
C1884       C  0.89712092  0.05118993  0.69583882    -0.23100
H1885       H  0.84419313  0.05200600  0.70738063     0.18700
H1886       H  0.94559449  0.14913964  0.69656539     0.17500
H1887       H  0.90976113  0.17380447  0.70855978     0.13800
H1888       H  0.88031988  0.02748225  0.69721301     0.13600
H1889       H  0.82466328  0.08977519  0.71710250     0.31800
H1890       H  0.96526769  0.11154565  0.68853593     0.34600
C1891       C  0.90103333  0.27251237  0.71273621     0.20200
C1892       C  0.92547195  0.29609083  0.69756141    -0.39700
C1893       C  0.92644102  0.32259145  0.70043369     0.19100
C1894       C  0.90519732  0.32566666  0.71782805     0.21800
C1895       C  0.88102700  0.30222637  0.73340761    -0.40200
C1896       C  0.87954106  0.27540708  0.72981187     0.20600
N1897       N  0.89342377  0.24423590  0.71113314    -0.33500
C1898       C  0.86662448  0.22889203  0.72678959    -0.11100
C1899       C  0.85725691  0.24754661  0.73891667    -0.29900
N1900       N  0.90978647  0.35220684  0.71506809    -0.46500
C1901       C  0.93367366  0.36573935  0.69531977    -0.05700
C1902       C  0.94482875  0.34812733  0.68581125    -0.23100
H1903       H  0.94153689  0.29342385  0.68321837     0.18700
H1904       H  0.86371702  0.30417492  0.74598715     0.17500
H1905       H  0.83637855  0.24128164  0.75152667     0.13800
H1906       H  0.96293363  0.35273870  0.66933040     0.13600
H1907       H  0.90499939  0.23558793  0.69892351     0.31800
H1908       H  0.89652201  0.35992405  0.72473748     0.34600
C1909       C  0.72504430  0.09831766  0.71458526     0.20200
C1910       C  0.70070597  0.07284161  0.70105272    -0.39700
C1911       C  0.67491260  0.07300104  0.70186709     0.19100
C1912       C  0.67321765  0.09636782  0.71585639     0.21800
C1913       C  0.69746561  0.12171072  0.72963142    -0.40200
C1914       C  0.72352562  0.12190840  0.72814228     0.20600
N1915       N  0.75286382  0.10479881  0.71437930    -0.33500
C1916       C  0.76931543  0.13291368  0.72740483    -0.11100
C1917       C  0.75177288  0.14428579  0.73645100    -0.29900
N1918       N  0.64688408  0.09193137  0.71216486    -0.46500
C1919       C  0.63201681  0.06591046  0.69523103    -0.05700
C1920       C  0.64868550  0.05337119  0.68835729    -0.23100
H1921       H  0.70225155  0.05492036  0.68948697     0.18700
H1922       H  0.69657006  0.14050943  0.73953891     0.17500
H1923       H  0.75904614  0.16644501  0.74641705     0.13800
H1924       H  0.64285284  0.03323869  0.67448658     0.13600
H1925       H  0.76053063  0.09150922  0.70463989     0.31800
H1926       H  0.64001710  0.10639410  0.71951439     0.34600
C1927       C  0.87222448  0.10219698  0.95942284     0.20200
C1928       C  0.86871506  0.07440697  0.95571921    -0.39700
C1929       C  0.89528979  0.07547471  0.95011866     0.19100
C1930       C  0.92325785  0.10218420  0.94840450     0.21800
C1931       C  0.92678532  0.13003845  0.95212281    -0.40200
C1932       C  0.90014457  0.12895370  0.95770903     0.20600
N1933       N  0.85039414  0.10712362  0.46484589    -0.33500
C1934       C  0.86450655  0.13723998  0.96662667    -0.11100
C1935       C  0.89555633  0.15167454  0.96232840    -0.29900
N1936       N  0.94497213  0.09704037  0.94316701    -0.46500
C1937       C  0.93060585  0.06687254  0.94154675    -0.05700
C1938       C  0.89965200  0.05264453  0.94570482    -0.23100
H1939       H  0.84690096  0.05349834  0.45711309     0.18700
H1940       H  0.94860662  0.15095543  0.95081839     0.17500
H1941       H  0.91242814  0.17551194  0.96244373     0.13800
H1942       H  0.88268765  0.02884704  0.94579928     0.13600
H1943       H  0.82736839  0.09101364  0.46715455     0.31800
H1944       H  0.96808093  0.11301125  0.94101373     0.34600
C1945       C  0.90329860  0.32465303  0.96658555     0.20200
C1946       C  0.87920982  0.30127342  0.98228371    -0.39700
C1947       C  0.87870909  0.27504164  0.98005344     0.19100
C1948       C  0.90096453  0.27264934  0.96405265     0.21800
C1949       C  0.92525635  0.29614836  0.94870576    -0.40200
C1950       C  0.92529658  0.32203912  0.95027045     0.20600
N1951       N  0.90748510  0.35085814  0.96309387    -0.33500
C1952       C  0.93195694  0.36464161  0.94403287    -0.11100
C1953       C  0.94374987  0.34747690  0.93555636    -0.29900
N1954       N  0.89416052  0.24475399  0.96341418    -0.46500
C1955       C  0.86710489  0.22910934  0.97856490    -0.05700
C1956       C  0.85679517  0.24723072  0.48950698    -0.23100
H1957       H  0.86136054  0.30283151  0.49405524     0.18700
H1958       H  0.94197343  0.29384118  0.93524500     0.17500
H1959       H  0.96260810  0.35249103  0.91996515     0.13800
H1960       H  0.83547474  0.24056619  0.50134986     0.13600
H1961       H  0.89384210  0.35832707  0.97206928     0.31800
H1962       H  0.90635675  0.23646102  0.95196471     0.34600
C1963       C  0.72594774  0.12112474  0.97821788     0.20200
C1964       C  0.70052630  0.12229097  0.48161215    -0.39700
C1965       C  0.67533688  0.09802771  0.96798517     0.19100
C1966       C  0.67563259  0.07460929  0.95192888     0.21800
C1967       C  0.70065030  0.07289299  0.94948630    -0.40200
C1968       C  0.72571977  0.09700392  0.96331228     0.20600
N1969       N  0.75353430  0.14270894  0.48644670    -0.33500
C1970       C  0.77086644  0.13209888  0.97691214    -0.11100
C1971       C  0.75422651  0.10350931  0.96273497    -0.29900
N1972       N  0.65030274  0.05622113  0.93820017    -0.46500
C1973       C  0.63366254  0.06783980  0.94582179    -0.05700
C1974       C  0.64825910  0.09363741  0.96472441    -0.23100
H1975       H  0.70079839  0.14134885  0.49280784     0.18700
H1976       H  0.70107866  0.05486153  0.93655258     0.17500
H1977       H  0.76236705  0.09016473  0.95178210     0.13800
H1978       H  0.64093533  0.10828582  0.97323505     0.13600
H1979       H  0.76035943  0.16370866  0.49704795     0.31800
H1980       H  0.64501979  0.03744233  0.92385230     0.34600
C1981       C  0.84866905  0.65225198  0.97217917     0.80000
N1982       N  0.81826828  0.63592087  0.97373891    -0.78300
C1983       C  0.80352871  0.64976580  0.97857026     0.82500
N1984       N  0.81940995  0.68015481  0.98161331    -0.78200
C1985       C  0.84986869  0.69657806  0.97958132     0.82600
N1986       N  0.86437388  0.68254938  0.97462500    -0.79900
C1987       C  0.84655104  0.65135427  0.22065281     0.80000
N1988       N  0.86278240  0.68168625  0.22247625    -0.78300
C1989       C  0.84887815  0.69630155  0.22777152     0.82500
N1990       N  0.81846211  0.68042062  0.23072667    -0.80000
C1991       C  0.80201596  0.64999551  0.22829541     0.82600
N1992       N  0.81615305  0.63553889  0.22318703    -0.79900
C1993       C  0.65079926  0.84564582  0.32418965     0.80000
N1994       N  0.63492931  0.81532435  0.32191461    -0.78300
C1995       C  0.64924911  0.80110111  0.31668397     0.82500
N1996       N  0.67970637  0.81737331  0.31396311    -0.78200
C1997       C  0.69573176  0.84777686  0.31668667     0.82600
N1998       N  0.68117853  0.86179847  0.32200193    -0.79900
C1999       C  0.64976798  0.84590557  0.06916701     0.80000
N2000       N  0.63334686  0.81554548  0.06812985    -0.78300
C2001       C  0.64726025  0.80090356  0.06460561     0.82500
N2002       N  0.67767761  0.81676501  0.06260783    -0.78200
C2003       C  0.69415718  0.84713776  0.06431913     0.82600
N2004       N  0.68011057  0.86159158  0.06773794    -0.79900
N2005       N  0.56397929  0.54861335  0.42691107    -0.06300
N2006       N  0.58375230  0.56002657  0.44670546    -0.58400
N2007       N  0.54860112  0.56302416  0.36691198    -0.06000
N2008       N  0.55884228  0.58247835  0.34709114    -0.60500
N2009       N  0.53853089  0.57159259  0.39108268    -0.05600
N2010       N  0.54125520  0.59677992  0.38812555    -0.58400
N2011       N  0.57310071  0.53897576  0.40281137    -0.05300
N2012       N  0.59906342  0.54318441  0.40586076    -0.60900
C2013       C  0.60531032  0.55620217  0.43335890     0.95900
C2014       C  0.55382665  0.60318544  0.36059956     0.95700
N2015       N  0.99440318  0.97763949  0.32561734    -0.06500
N2016       N  0.98146750  0.97192711  0.30129523    -0.59000
N2017       N  0.54502822  0.97976567  0.36145141    -0.04600
N2018       N  0.56723253  0.97611829  0.35966543    -0.60300
N2019       N  0.51908174  0.95369650  0.36125841    -0.06500
N2020       N  0.52302584  0.93169984  0.35926327    -0.59300
N2021       N  0.52035362  0.50373226  0.32560426    -0.04200
N2022       N  0.52565682  0.51636371  0.30120498    -0.60300
Mn2023     Mn  0.54771096  0.52177449  0.36355356     1.18400
C2024       C  0.00123068  0.99623024  0.28633815     0.98000
C2025       C  0.55312020  0.94606837  0.35837427     0.98600
N2026       N  0.97983094  0.54343463  0.43236089    -0.06500
N2027       N  0.97605239  0.56559321  0.43515773    -0.62800
N2028       N  0.97810998  0.99299478  0.46764257    -0.05300
N2029       N  0.97227370  0.98036561  0.49216703    -0.63500
N2030       N  0.50412865  0.51905304  0.46782263    -0.06000
N2031       N  0.51654498  0.52473767  0.49249654    -0.63100
N2032       N  0.95381321  0.51744854  0.43228970    -0.04900
N2033       N  0.93169685  0.52133297  0.43514780    -0.63800
Mn2034     Mn  0.52201819  0.54649930  0.43013203     1.10700
C2035       C  0.94596259  0.55142994  0.43679555     0.99200
C2036       C  0.99642117  0.00043067  0.00737713     0.99300
N2037       N  0.95972946  0.92515812  0.40206474    -0.06100
N2038       N  0.95605013  0.89945966  0.40474065    -0.61400
N2039       N  0.92592441  0.95838546  0.39030634    -0.05400
N2040       N  0.90002520  0.95422320  0.38715370    -0.58200
N2041       N  0.93502698  0.94858920  0.36631271    -0.06700
N2042       N  0.91534887  0.93717458  0.34645415    -0.61000
N2043       N  0.94947513  0.93369005  0.42611675    -0.05700
N2044       N  0.93817297  0.91372151  0.44558788    -0.58200
Mn2045     Mn  0.97675072  0.95044771  0.36323217     1.20200
Mn2046     Mn  0.95094388  0.97526279  0.42967907     1.10100
Cl2047     Cl  0.99936921  0.99848149  0.39667868    -0.86100
C2048       C  0.94272014  0.89273493  0.43198610     0.96200
C2049       C  0.89386411  0.94112477  0.35968800     0.96000
N2050       N  0.56264173  0.54810969  0.17718550    -0.06300
N2051       N  0.58239244  0.55887931  0.19690817    -0.58400
N2052       N  0.54725254  0.56312537  0.11759957    -0.06000
N2053       N  0.55784466  0.58292871  0.09804689    -0.60500
N2054       N  0.53721360  0.57159704  0.14187813    -0.05600
N2055       N  0.54035992  0.59706577  0.13927124    -0.58400
N2056       N  0.57148077  0.53841372  0.15292187    -0.05300
N2057       N  0.59714026  0.54192097  0.15572516    -0.60900
C2058       C  0.60356286  0.55457366  0.18326746     0.95900
C2059       C  0.55312542  0.60376864  0.11184028     0.95700
N2060       N  0.99294883  0.97770583  0.07593371    -0.06500
N2061       N  0.98044299  0.97192045  0.05128525    -0.59000
N2062       N  0.54365278  0.97962435  0.11137846    -0.04600
N2063       N  0.56577242  0.97573294  0.10890069    -0.60300
N2064       N  0.51762139  0.95365486  0.11134511    -0.06500
N2065       N  0.52136786  0.93151987  0.10883201    -0.59300
N2066       N  0.51892934  0.50378506  0.07603485    -0.04200
N2067       N  0.52467857  0.51632642  0.05148244    -0.60300
Mn2068     Mn  0.54622503  0.52167082  0.11387315     1.18400
C2069       C  0.00050223  0.99620437  0.03634080     0.98000
C2070       C  0.55143375  0.94562401  0.10742153     0.98600
N2071       N  0.97814518  0.54298801  0.18340103    -0.06500
N2072       N  0.97399717  0.56489395  0.18584137    -0.62800
N2073       N  0.97734902  0.99285536  0.21841780    -0.05300
N2074       N  0.97204720  0.98025905  0.24283743    -0.63500
N2075       N  0.50329809  0.51896193  0.21836730    -0.06000
N2076       N  0.51622701  0.52471531  0.24270702    -0.63100
N2077       N  0.95224072  0.51687229  0.18351327    -0.04900
N2078       N  0.92988907  0.52039494  0.18614608    -0.63800
Mn2079     Mn  0.52071158  0.54629616  0.18078792     1.10700
C2080       C  0.94383371  0.55042201  0.18747006     0.99200
C2081       C  0.99647468  0.00041871  0.25768817     0.99300
N2082       N  0.95893471  0.92519334  0.15265432    -0.06100
N2083       N  0.95629962  0.90003352  0.15555538    -0.61400
N2084       N  0.92447578  0.95807305  0.14141407    -0.05400
N2085       N  0.89845878  0.95381674  0.13858965    -0.58200
N2086       N  0.93345237  0.94838885  0.11723000    -0.06700
N2087       N  0.91350492  0.93686701  0.09761604    -0.61000
N2088       N  0.94890263  0.93371253  0.17688547    -0.05700
N2089       N  0.93878813  0.91427716  0.19668948    -0.58200
Mn2090     Mn  0.97533750  0.95039992  0.11368872     1.20200
Mn2091     Mn  0.94982565  0.97496414  0.18064529     1.10100
Cl2092     Cl  0.99799726  0.99835681  0.14721918    -0.86100
C2093       C  0.94382306  0.89361560  0.18311810     0.96200
C2094       C  0.89203190  0.94072109  0.11116029     0.96000
C2095       C  0.59217456  0.67217673  0.07758483     0.20200
C2096       C  0.61604775  0.69545122  0.06159972    -0.39700
C2097       C  0.61735857  0.72218045  0.06489937     0.19100
C2098       C  0.59607017  0.72523337  0.08220252     0.21800
C2099       C  0.57201252  0.70185976  0.09794670    -0.40200
C2100       C  0.57112734  0.67537926  0.09521888     0.20600
N2101       N  0.58749474  0.64554625  0.08018887    -0.33500
C2102       C  0.56367394  0.63200337  0.10001583    -0.11100
C2103       C  0.55274310  0.64979223  0.10980598    -0.29900
N2104       N  0.60333381  0.75337199  0.08308600    -0.46500
C2105       C  0.62968238  0.76843196  0.06665562    -0.05700
C2106       C  0.63913307  0.74975890  0.05489006    -0.23100
H2107       H  0.63314257  0.69337812  0.04868180     0.18700
H2108       H  0.55600656  0.70457423  0.11234366     0.17500
H2109       H  0.53462388  0.64514646  0.12627896     0.13800
H2110       H  0.65973111  0.75585522  0.04178757     0.13600
H2111       H  0.60054467  0.63768295  0.07020524     0.31800
H2112       H  0.59183946  0.76213791  0.09522100     0.34600
C2113       C  0.77080636  0.87412258  0.06747354     0.20200
C2114       C  0.79566571  0.87222242  0.06562191    -0.39700
C2115       C  0.82101235  0.89688820  0.07859998     0.19100
C2116       C  0.82136554  0.92133047  0.09278737     0.21800
C2117       C  0.79678004  0.92357284  0.09397371    -0.40200
C2118       C  0.77159724  0.89910286  0.08061843     0.20600
N2119       N  0.74331165  0.85269833  0.05900682    -0.33500
C2120       C  0.72661076  0.86425967  0.06663603    -0.11100
C2121       C  0.74354145  0.89327874  0.07982683    -0.29900
N2122       N  0.84708235  0.94049507  0.10569800    -0.46500
C2123       C  0.86328575  0.92830795  0.09930281    -0.05700
C2124       C  0.84799529  0.90131922  0.08219730    -0.23100
H2125       H  0.79497973  0.85256795  0.05570934     0.18700
H2126       H  0.79687020  0.94247822  0.10534175     0.17500
H2127       H  0.73583847  0.90742334  0.08923575     0.13800
H2128       H  0.85498360  0.88620212  0.07485979     0.13600
H2129       H  0.73612013  0.83123847  0.04947620     0.31800
H2130       H  0.85300922  0.96028124  0.11854039     0.34600
C2131       C  0.60025812  0.87025318  0.08132774     0.20200
C2132       C  0.57265970  0.86726662  0.08530842    -0.39700
C2133       C  0.57422291  0.89401998  0.09225365     0.19100
C2134       C  0.60119049  0.92165535  0.09491943     0.21800
C2135       C  0.62880243  0.92464286  0.09089946    -0.40200
C2136       C  0.62723399  0.89787101  0.08396462     0.20600
N2137       N  0.60481112  0.84818298  0.07524870    -0.33500
C2138       C  0.63490975  0.86190503  0.07405159    -0.11100
C2139       C  0.64966456  0.89288272  0.07920209    -0.29900
N2140       N  0.59657355  0.94368476  0.10115049    -0.46500
C2141       C  0.56646835  0.92986321  0.10241646    -0.05700
C2142       C  0.55175696  0.89893728  0.09713513    -0.23100
H2143       H  0.55154299  0.84571839  0.08324124     0.18700
H2144       H  0.64991784  0.94618638  0.09301223     0.17500
H2145       H  0.67353074  0.90943811  0.07997375     0.13800
H2146       H  0.52788874  0.88237556  0.09640798     0.13600
H2147       H  0.58847399  0.82524915  0.07246706     0.31800
H2148       H  0.61284405  0.96665021  0.10401483     0.34600
C2149       C  0.59738927  0.72464963  0.33111511     0.20200
C2150       C  0.57243641  0.70073274  0.34549228    -0.39700
C2151       C  0.57191053  0.67450075  0.34327960     0.19100
C2152       C  0.59417121  0.67206300  0.32735141     0.21800
C2153       C  0.61893123  0.69587421  0.31266984    -0.40200
C2154       C  0.61982185  0.72234482  0.31545017     0.20600
N2155       N  0.60450133  0.75271588  0.33221544    -0.33500
C2156       C  0.63186881  0.76850611  0.31760761    -0.11100
C2157       C  0.64212398  0.75033667  0.30665940    -0.29900
N2158       N  0.58957311  0.64556194  0.33030292    -0.46500
C2159       C  0.56456869  0.63134546  0.34864534    -0.05700
C2160       C  0.55278973  0.64854399  0.35713934    -0.23100
H2161       H  0.55550286  0.70289684  0.35866469     0.18700
H2162       H  0.63691848  0.69437712  0.30119029     0.17500
H2163       H  0.66354674  0.75700988  0.29505681     0.13800
H2164       H  0.53366259  0.64331614  0.37241472     0.13600
H2165       H  0.59216317  0.76094389  0.34344380     0.31800
H2166       H  0.60340730  0.63823097  0.32161944     0.34600
C2167       C  0.77338074  0.87632445  0.31518274     0.20200
C2168       C  0.79866581  0.87495050  0.31182186    -0.39700
C2169       C  0.82399104  0.89930909  0.32515300     0.19100
C2170       C  0.82397387  0.92305284  0.34078243     0.21800
C2171       C  0.79916169  0.92502401  0.34305611    -0.40200
C2172       C  0.77393331  0.90077636  0.32963874     0.20600
N2173       N  0.74557190  0.85456571  0.30768527    -0.33500
C2174       C  0.72846164  0.86540651  0.31732440    -0.11100
C2175       C  0.74544382  0.89431000  0.33070397    -0.29900
N2176       N  0.84930539  0.94145959  0.35443569    -0.46500
C2177       C  0.86565314  0.92951662  0.34717709    -0.05700
C2178       C  0.85090279  0.90348743  0.32862382    -0.23100
H2179       H  0.79813804  0.85561968  0.30106387     0.18700
H2180       H  0.79893382  0.94326451  0.35575014     0.17500
H2181       H  0.73752938  0.90785186  0.34164819     0.13800
H2182       H  0.85800513  0.88858279  0.32051634     0.13600
H2183       H  0.73845872  0.83329359  0.29765037     0.31800
H2184       H  0.85476845  0.96044977  0.36850980     0.34600
C2185       C  0.57627504  0.89573248  0.34665428     0.20200
C2186       C  0.57287877  0.86799299  0.34100832    -0.39700
C2187       C  0.59955402  0.86916752  0.33732695     0.19100
C2188       C  0.62745544  0.89590884  0.33911862     0.21800
C2189       C  0.63084889  0.92364864  0.34479728    -0.40200
C2190       C  0.60417489  0.92248163  0.34847504     0.20600
N2191       N  0.55446844  0.90071752  0.35044465    -0.33500
C2192       C  0.56865284  0.93083615  0.35458541    -0.11100
C2193       C  0.59962429  0.94520868  0.35360852    -0.29900
N2194       N  0.64929462  0.89095814  0.33464380    -0.46500
C2195       C  0.63515758  0.86085969  0.33000009    -0.05700
C2196       C  0.60413351  0.84648765  0.33151304    -0.23100
H2197       H  0.55110813  0.84707757  0.33943282     0.18700
H2198       H  0.65263740  0.94458134  0.34608384     0.17500
H2199       H  0.61650102  0.96904601  0.35588925     0.13800
H2200       H  0.58725108  0.82268886  0.32867679     0.13600
H2201       H  0.53143537  0.88468896  0.34984568     0.31800
H2202       H  0.67237535  0.90706076  0.33475726     0.34600
C2203       C  0.86938449  0.60061383  0.20769914     0.20200
C2204       C  0.86592877  0.57283325  0.20485805    -0.39700
C2205       C  0.89252241  0.57386615  0.19899594     0.19100
C2206       C  0.92039230  0.60051888  0.19606733     0.21800
C2207       C  0.92382720  0.62827122  0.19867792    -0.40200
C2208       C  0.89726050  0.62724271  0.20472230     0.20600
N2209       N  0.84769160  0.60574909  0.21372458    -0.33500
C2210       C  0.86191710  0.63585696  0.21466015    -0.11100
C2211       C  0.89283332  0.65003552  0.20916738    -0.29900
N2212       N  0.94221298  0.59552689  0.19128302    -0.46500
C2213       C  0.92810489  0.56550736  0.19121088    -0.05700
C2214       C  0.89712096  0.55118996  0.19583878    -0.23100
H2215       H  0.84419318  0.55200601  0.20738070     0.18700
H2216       H  0.94559446  0.64913965  0.19656533     0.17500
H2217       H  0.90976117  0.67380447  0.20855974     0.13800
H2218       H  0.88031995  0.52748227  0.19721297     0.13600
H2219       H  0.82466325  0.58977519  0.21710246     0.31800
H2220       H  0.96526784  0.61154574  0.18853590     0.34600
C2221       C  0.90103334  0.77251240  0.21273620     0.20200
C2222       C  0.92547193  0.79609085  0.19756136    -0.39700
C2223       C  0.92644101  0.82259147  0.20043366     0.19100
C2224       C  0.90519732  0.82566671  0.21782805     0.21800
C2225       C  0.88102701  0.80222640  0.23340758    -0.40200
C2226       C  0.87954107  0.77540713  0.22981183     0.20600
N2227       N  0.89342378  0.74423594  0.21113318    -0.33500
C2228       C  0.86662445  0.72889207  0.22678957    -0.11100
C2229       C  0.85725691  0.74754667  0.23891663    -0.29900
N2230       N  0.90978652  0.85220688  0.21506813    -0.46500
C2231       C  0.93367365  0.86573937  0.19531981    -0.05700
C2232       C  0.94482876  0.84812736  0.18581127    -0.23100
H2233       H  0.94153685  0.79342385  0.18321832     0.18700
H2234       H  0.86371702  0.80417495  0.24598710     0.17500
H2235       H  0.83637855  0.74128173  0.25152661     0.13800
H2236       H  0.96293368  0.85273877  0.16933048     0.13600
H2237       H  0.90499942  0.73558798  0.19892360     0.31800
H2238       H  0.89652197  0.85992420  0.22473765     0.34600
C2239       C  0.72504427  0.59831767  0.21458529     0.20200
C2240       C  0.70070596  0.57284160  0.20105275    -0.39700
C2241       C  0.67491261  0.57300103  0.20186711     0.19100
C2242       C  0.67321764  0.59636780  0.21585641     0.21800
C2243       C  0.69746555  0.62171069  0.22963153    -0.40200
C2244       C  0.72352557  0.62190840  0.22814236     0.20600
N2245       N  0.75286380  0.60479886  0.21437932    -0.33500
C2246       C  0.76931540  0.63291370  0.22740490    -0.11100
C2247       C  0.75177285  0.64428582  0.23645104    -0.29900
N2248       N  0.64688407  0.59193135  0.21216484    -0.46500
C2249       C  0.63201681  0.56591041  0.19523102    -0.05700
C2250       C  0.64868551  0.55337116  0.18835733    -0.23100
H2251       H  0.70225154  0.55492034  0.18948703     0.18700
H2252       H  0.69657001  0.64050940  0.23953903     0.17500
H2253       H  0.75904611  0.66644506  0.24641703     0.13800
H2254       H  0.64285285  0.53323862  0.17448669     0.13600
H2255       H  0.76053062  0.59150930  0.20463987     0.31800
H2256       H  0.64001713  0.60639406  0.21951431     0.34600
C2257       C  0.87222452  0.60219695  0.45942284     0.20200
C2258       C  0.86871504  0.57440690  0.45571918    -0.39700
C2259       C  0.89528979  0.57547467  0.45011859     0.19100
C2260       C  0.92325787  0.60218417  0.44840446     0.21800
C2261       C  0.92678536  0.63003842  0.45212282    -0.40200
C2262       C  0.90014462  0.62895369  0.45770907     0.20600
N2263       N  0.85039416  0.60712363  0.96484590    -0.33500
C2264       C  0.86450662  0.63723999  0.46662670    -0.11100
C2265       C  0.89555640  0.65167456  0.46232843    -0.29900
N2266       N  0.94497215  0.59704034  0.44316696    -0.46500
C2267       C  0.93060585  0.56687250  0.44154669    -0.05700
C2268       C  0.89965201  0.55264450  0.44570475    -0.23100
H2269       H  0.84690098  0.55349836  0.95711313     0.18700
H2270       H  0.94860668  0.65095538  0.45081840     0.17500
H2271       H  0.91242822  0.67551196  0.46244365     0.13800
H2272       H  0.88268766  0.52884702  0.44579922     0.13600
H2273       H  0.82736829  0.59101357  0.96715467     0.31800
H2274       H  0.96808094  0.61301117  0.44101368     0.34600
C2275       C  0.90329858  0.82465306  0.46658563     0.20200
C2276       C  0.87920979  0.80127340  0.48228372    -0.39700
C2277       C  0.87870909  0.77504163  0.48005341     0.19100
C2278       C  0.90096454  0.77264936  0.46405261     0.21800
C2279       C  0.92525634  0.79614842  0.44870577    -0.40200
C2280       C  0.92529659  0.82203917  0.45027054     0.20600
N2281       N  0.90748503  0.85085813  0.46309393    -0.33500
C2282       C  0.93195687  0.86464159  0.44403290    -0.11100
C2283       C  0.94374985  0.84747693  0.43555642    -0.29900
N2284       N  0.89416059  0.74475404  0.46341416    -0.46500
C2285       C  0.86710498  0.72910936  0.47856488    -0.05700
C2286       C  0.85679513  0.74723071  0.98950690    -0.23100
H2287       H  0.86136055  0.80283159  0.99405524     0.18700
H2288       H  0.94197344  0.79384131  0.43524494     0.17500
H2289       H  0.96260806  0.85249104  0.41996519     0.13800
H2290       H  0.83547462  0.74056608  0.00134964     0.13600
H2291       H  0.89384199  0.85832709  0.47206933     0.31800
H2292       H  0.90635694  0.73646108  0.45196466     0.34600
C2293       C  0.72594770  0.62112475  0.47821790     0.20200
C2294       C  0.70052618  0.62229087  0.98161217    -0.39700
C2295       C  0.67533689  0.59802776  0.46798511     0.19100
C2296       C  0.67563258  0.57460932  0.45192888     0.21800
C2297       C  0.70065022  0.57289295  0.44948641    -0.40200
C2298       C  0.72571971  0.59700389  0.46331235     0.20600
N2299       N  0.75353422  0.64270893  0.98644675    -0.33500
C2300       C  0.77086644  0.63209890  0.47691210    -0.11100
C2301       C  0.75422648  0.60350930  0.46273494    -0.29900
N2302       N  0.65030276  0.55622114  0.43820011    -0.46500
C2303       C  0.63366259  0.56783987  0.44582172    -0.05700
C2304       C  0.64825911  0.59363745  0.46472434    -0.23100
H2305       H  0.70079825  0.64134872  0.99280789     0.18700
H2306       H  0.70107852  0.55486142  0.43655276     0.17500
H2307       H  0.76236697  0.59016470  0.45178202     0.13800
H2308       H  0.64093531  0.60828583  0.47323501     0.13600
H2309       H  0.76035929  0.66370862  0.99704807     0.31800
H2310       H  0.64501979  0.53744241  0.42385233     0.34600
C2311       C  0.84866905  0.65225198  0.47217919     0.80000
N2312       N  0.81826829  0.63592086  0.47373898    -0.78300
C2313       C  0.80352872  0.64976579  0.47857023     0.82500
N2314       N  0.81940997  0.68015481  0.48161329    -0.78200
C2315       C  0.84986870  0.69657807  0.47958136     0.82600
N2316       N  0.86437389  0.68254939  0.47462500    -0.79900
C2317       C  0.84655104  0.65135425  0.72065270     0.80000
N2318       N  0.86278241  0.68168625  0.72247625    -0.78300
C2319       C  0.84887817  0.69630155  0.72777154     0.82500
N2320       N  0.81846213  0.68042063  0.73072668    -0.80000
C2321       C  0.80201598  0.64999552  0.72829532     0.82600
N2322       N  0.81615306  0.63553888  0.72318685    -0.79900
C2323       C  0.65079924  0.84564582  0.82418969     0.80000
N2324       N  0.63492928  0.81532434  0.82191466    -0.78300
C2325       C  0.64924908  0.80110109  0.81668401     0.82500
N2326       N  0.67970633  0.81737329  0.81396317    -0.78200
C2327       C  0.69573174  0.84777683  0.81668673     0.82600
N2328       N  0.68117851  0.86179845  0.82200198    -0.79900
C2329       C  0.64976801  0.84590563  0.56916706     0.80000
N2330       N  0.63334690  0.81554554  0.56812990    -0.78300
C2331       C  0.64726028  0.80090362  0.56460567     0.82500
N2332       N  0.67767763  0.81676507  0.56260789    -0.78200
C2333       C  0.69415720  0.84713782  0.56431917     0.82600
N2334       N  0.68011060  0.86159165  0.56773798    -0.79900
N2335       N  0.56397922  0.54861326  0.92691103    -0.06300
N2336       N  0.58375220  0.56002649  0.94670544    -0.58400
N2337       N  0.54860108  0.56302408  0.86691199    -0.06000
N2338       N  0.55884230  0.58247831  0.84709115    -0.60500
N2339       N  0.53853084  0.57159250  0.89108267    -0.05600
N2340       N  0.54125520  0.59677986  0.88812556    -0.58400
N2341       N  0.57310067  0.53897570  0.90281134    -0.05300
N2342       N  0.59906340  0.54318439  0.90586073    -0.60900
C2343       C  0.60531026  0.55620213  0.93335889     0.95900
C2344       C  0.55382669  0.60318541  0.86059959     0.95700
N2345       N  0.99440320  0.97763942  0.82561735    -0.06500
N2346       N  0.98146751  0.97192703  0.80129525    -0.59000
N2347       N  0.54502817  0.97976563  0.86145148    -0.04600
N2348       N  0.56723247  0.97611825  0.85966549    -0.60300
N2349       N  0.51908168  0.95369645  0.86125847    -0.06500
N2350       N  0.52302579  0.93169980  0.85926333    -0.59300
N2351       N  0.52035358  0.50373225  0.82560429    -0.04200
N2352       N  0.52565678  0.51636372  0.80120501    -0.60300
Mn2353     Mn  0.54771093  0.52177442  0.86355357     1.18400
C2354       C  0.00123065  0.99623018  0.78633818     0.98000
C2355       C  0.55312015  0.94606834  0.85837433     0.98600
N2356       N  0.97983093  0.54343468  0.93236091    -0.06500
N2357       N  0.97605236  0.56559326  0.93515777    -0.62800
N2358       N  0.97810997  0.99299483  0.96764260    -0.05300
N2359       N  0.97227373  0.98036564  0.99216704    -0.63500
N2360       N  0.50412868  0.51905308  0.96782263    -0.06000
N2361       N  0.51654506  0.52473768  0.99249652    -0.63100
N2362       N  0.95381320  0.51744858  0.93228972    -0.04900
N2363       N  0.93169683  0.52133300  0.93514785    -0.63800
Mn2364     Mn  0.52201816  0.54649925  0.93013199     1.10700
C2365       C  0.94596255  0.55142996  0.93679561     0.99200
C2366       C  0.99642113  0.00043064  0.50737714     0.99300
N2367       N  0.95972950  0.92515816  0.90206477    -0.06100
N2368       N  0.95605028  0.89945975  0.90474070    -0.61400
N2369       N  0.92592443  0.95838544  0.89030630    -0.05400
N2370       N  0.90002519  0.95422311  0.88715370    -0.58200
N2371       N  0.93502703  0.94858925  0.86631262    -0.06700
N2372       N  0.91534893  0.93717470  0.84645406    -0.61000
N2373       N  0.94947511  0.93369004  0.92611675    -0.05700
N2374       N  0.93817297  0.91372149  0.94558789    -0.58200
Mn2375     Mn  0.97675074  0.95044770  0.86323217     1.20200
Mn2376     Mn  0.95094389  0.97526280  0.92967908     1.10100
Cl2377     Cl  0.99936924  0.99848151  0.89667867    -0.86100
C2378       C  0.94272027  0.89273499  0.93198613     0.96200
C2379       C  0.89386413  0.94112479  0.85968797     0.96000
N2380       N  0.56264172  0.54810968  0.67718556    -0.06300
N2381       N  0.58239244  0.55887930  0.69690822    -0.58400
N2382       N  0.54725249  0.56312537  0.61759954    -0.06000
N2383       N  0.55784459  0.58292868  0.59804683    -0.60500
N2384       N  0.53721362  0.57159708  0.64187812    -0.05600
N2385       N  0.54035997  0.59706582  0.63927121    -0.58400
N2386       N  0.57148076  0.53841374  0.65292191    -0.05300
N2387       N  0.59714026  0.54192102  0.65572516    -0.60900
C2388       C  0.60356288  0.55457369  0.68326747     0.95900
C2389       C  0.55312540  0.60376865  0.61184022     0.95700
N2390       N  0.99294875  0.97770575  0.57593372    -0.06500
N2391       N  0.98044291  0.97192038  0.55128526    -0.59000
N2392       N  0.54365275  0.97962435  0.61137848    -0.04600
N2393       N  0.56577241  0.97573295  0.60890074    -0.60300
N2394       N  0.51762136  0.95365485  0.61134513    -0.06500
N2395       N  0.52136784  0.93151987  0.60883206    -0.59300
N2396       N  0.51892938  0.50378512  0.57603484    -0.04200
N2397       N  0.52467857  0.51632649  0.55148245    -0.60300
Mn2398     Mn  0.54622503  0.52167085  0.61387314     1.18400
C2399       C  0.00050216  0.99620431  0.53634082     0.98000
C2400       C  0.55143374  0.94562403  0.60742159     0.98600
N2401       N  0.97814516  0.54298801  0.68340095    -0.06500
N2402       N  0.97399715  0.56489394  0.68584133    -0.62800
N2403       N  0.97734898  0.99285532  0.71841783    -0.05300
N2404       N  0.97204716  0.98025898  0.74283745    -0.63500
N2405       N  0.50329801  0.51896188  0.71836733    -0.06000
N2406       N  0.51622693  0.52471525  0.74270705    -0.63100
N2407       N  0.95224070  0.51687228  0.68351316    -0.04900
N2408       N  0.92988905  0.52039494  0.68614603    -0.63800
Mn2409     Mn  0.52071157  0.54629617  0.68078794     1.10700
C2410       C  0.94383370  0.55042201  0.68747003     0.99200
C2411       C  0.99647466  0.00041862  0.75768819     0.99300
N2412       N  0.95893477  0.92519334  0.65265430    -0.06100
N2413       N  0.95629965  0.90003353  0.65555539    -0.61400
N2414       N  0.92447577  0.95807298  0.64141405    -0.05400
N2415       N  0.89845875  0.95381665  0.63858967    -0.58200
N2416       N  0.93345232  0.94838874  0.61722998    -0.06700
N2417       N  0.91350483  0.93686687  0.59761605    -0.61000
N2418       N  0.94890268  0.93371256  0.67688545    -0.05700
N2419       N  0.93878812  0.91427718  0.69668945    -0.58200
Mn2420     Mn  0.97533748  0.95039986  0.61368868     1.20200
Mn2421     Mn  0.94982569  0.97496413  0.68064524     1.10100
Cl2422     Cl  0.99799732  0.99835675  0.64721917    -0.86100
C2423       C  0.94382304  0.89361561  0.68311810     0.96200
C2424       C  0.89203182  0.94072097  0.61116033     0.96000
C2425       C  0.59217464  0.67217680  0.57758488     0.20200
C2426       C  0.61604782  0.69545129  0.56159977    -0.39700
C2427       C  0.61735860  0.72218051  0.56489940     0.19100
C2428       C  0.59607015  0.72523340  0.58220249     0.21800
C2429       C  0.57201248  0.70185976  0.59794664    -0.40200
C2430       C  0.57112735  0.67537929  0.59521885     0.20600
N2431       N  0.58749485  0.64554632  0.58018894    -0.33500
C2432       C  0.56367395  0.63200339  0.60001577    -0.11100
C2433       C  0.55274306  0.64979221  0.60980587    -0.29900
N2434       N  0.60333377  0.75337202  0.58308594    -0.46500
C2435       C  0.62968238  0.76843201  0.56665564    -0.05700
C2436       C  0.63913311  0.74975897  0.55489011    -0.23100
H2437       H  0.63314263  0.69337821  0.54868181     0.18700
H2438       H  0.55600644  0.70457416  0.61234354     0.17500
H2439       H  0.53462378  0.64514638  0.62627880     0.13800
H2440       H  0.65973117  0.75585532  0.54178765     0.13600
H2441       H  0.60054483  0.63768307  0.57020539     0.31800
H2442       H  0.59183933  0.76213791  0.59522090     0.34600
C2443       C  0.77080637  0.87412263  0.56747355     0.20200
C2444       C  0.79566571  0.87222245  0.56562189    -0.39700
C2445       C  0.82101234  0.89688823  0.57859993     0.19100
C2446       C  0.82136553  0.92133050  0.59278737     0.21800
C2447       C  0.79678002  0.92357287  0.59397378    -0.40200
C2448       C  0.77159721  0.89910287  0.58061850     0.20600
N2449       N  0.74331168  0.85269837  0.55900673    -0.33500
C2450       C  0.72661078  0.86425973  0.56663604    -0.11100
C2451       C  0.74354143  0.89327875  0.57982690    -0.29900
N2452       N  0.84708232  0.94049504  0.60569806    -0.46500
C2453       C  0.86328569  0.92830787  0.59930285    -0.05700
C2454       C  0.84799523  0.90131918  0.58219730    -0.23100
H2455       H  0.79497971  0.85256798  0.55570933     0.18700
H2456       H  0.79687015  0.94247822  0.60534189     0.17500
H2457       H  0.73583845  0.90742335  0.58923587     0.13800
H2458       H  0.85498345  0.88620201  0.57485982     0.13600
H2459       H  0.73612027  0.83123871  0.54947606     0.31800
H2460       H  0.85300916  0.96028112  0.61854049     0.34600
C2461       C  0.60025808  0.87025314  0.58132780     0.20200
C2462       C  0.57265970  0.86726664  0.58530845    -0.39700
C2463       C  0.57422293  0.89402003  0.59225363     0.19100
C2464       C  0.60119049  0.92165537  0.59491944     0.21800
C2465       C  0.62880240  0.92464282  0.59089951    -0.40200
C2466       C  0.62723394  0.89787097  0.58396467     0.20600
N2467       N  0.60481110  0.84818298  0.57524876    -0.33500
C2468       C  0.63490973  0.86190503  0.57405165    -0.11100
C2469       C  0.64966453  0.89288272  0.57920214    -0.29900
N2470       N  0.59657357  0.94368481  0.60115054    -0.46500
C2471       C  0.56646836  0.92986324  0.60241650    -0.05700
C2472       C  0.55175698  0.89893732  0.59713512    -0.23100
H2473       H  0.55154299  0.84571840  0.58324130     0.18700
H2474       H  0.64991782  0.94618632  0.59301230     0.17500
H2475       H  0.67353071  0.90943811  0.57997378     0.13800
H2476       H  0.52788876  0.88237561  0.59640798     0.13600
H2477       H  0.58847389  0.82524900  0.57246711     0.31800
H2478       H  0.61284403  0.96665024  0.60401492     0.34600
C2479       C  0.59738926  0.72464964  0.83111513     0.20200
C2480       C  0.57243643  0.70073276  0.84549235    -0.39700
C2481       C  0.57191052  0.67450074  0.84327965     0.19100
C2482       C  0.59417117  0.67206298  0.82735145     0.21800
C2483       C  0.61893118  0.69587417  0.81266985    -0.40200
C2484       C  0.61982179  0.72234478  0.81545013     0.20600
N2485       N  0.60450137  0.75271590  0.83221553    -0.33500
C2486       C  0.63186881  0.76850611  0.81760764    -0.11100
C2487       C  0.64212395  0.75033663  0.80665936    -0.29900
N2488       N  0.58957309  0.64556191  0.83030294    -0.46500
C2489       C  0.56456869  0.63134543  0.84864537    -0.05700
C2490       C  0.55278972  0.64854396  0.85713939    -0.23100
H2491       H  0.55550295  0.70289696  0.85866479     0.18700
H2492       H  0.63691844  0.69437709  0.80119034     0.17500
H2493       H  0.66354669  0.75700980  0.79505676     0.13800
H2494       H  0.53366258  0.64331607  0.87241477     0.13600
H2495       H  0.59216326  0.76094396  0.84344399     0.31800
H2496       H  0.60340724  0.63823094  0.82161946     0.34600
C2497       C  0.77338072  0.87632439  0.81518279     0.20200
C2498       C  0.79866578  0.87495042  0.81182194    -0.39700
C2499       C  0.82399103  0.89930905  0.82515303     0.19100
C2500       C  0.82397384  0.92305282  0.84078247     0.21800
C2501       C  0.79916169  0.92502403  0.84305610    -0.40200
C2502       C  0.77393333  0.90077635  0.82963869     0.20600
N2503       N  0.74557186  0.85456562  0.80768535    -0.33500
C2504       C  0.72846163  0.86540647  0.81732443    -0.11100
C2505       C  0.74544385  0.89431000  0.83070387    -0.29900
N2506       N  0.84930536  0.94145956  0.85443570    -0.46500
C2507       C  0.86565313  0.92951663  0.84717710    -0.05700
C2508       C  0.85090281  0.90348745  0.82862379    -0.23100
H2509       H  0.79813799  0.85561959  0.80106394     0.18700
H2510       H  0.79893385  0.94326458  0.85575005     0.17500
H2511       H  0.73752944  0.90785192  0.84164801     0.13800
H2512       H  0.85800521  0.88858287  0.82051624     0.13600
H2513       H  0.73845866  0.83329351  0.79765054     0.31800
H2514       H  0.85476840  0.96044981  0.86850979     0.34600
C2515       C  0.57627502  0.89573247  0.84665433     0.20200
C2516       C  0.57287874  0.86799298  0.84100837    -0.39700
C2517       C  0.59955401  0.86916753  0.83732700     0.19100
C2518       C  0.62745540  0.89590884  0.83911868     0.21800
C2519       C  0.63084890  0.92364865  0.84479734    -0.40200
C2520       C  0.60417488  0.92248162  0.84847509     0.20600
N2521       N  0.55446842  0.90071750  0.85044470    -0.33500
C2522       C  0.56865282  0.93083613  0.85458547    -0.11100
C2523       C  0.59962428  0.94520867  0.85360859    -0.29900
N2524       N  0.64929466  0.89095818  0.83464386    -0.46500
C2525       C  0.63515755  0.86085967  0.83000013    -0.05700
C2526       C  0.60413350  0.84648766  0.83151308    -0.23100
H2527       H  0.55110808  0.84707756  0.83943287     0.18700
H2528       H  0.65263741  0.94458135  0.84608391     0.17500
H2529       H  0.61650101  0.96904600  0.85588934     0.13800
H2530       H  0.58725105  0.82268888  0.82867682     0.13600
H2531       H  0.53143537  0.88468896  0.84984572     0.31800
H2532       H  0.67237512  0.90706063  0.83475734     0.34600
C2533       C  0.86938453  0.60061383  0.70769911     0.20200
C2534       C  0.86592878  0.57283324  0.70485802    -0.39700
C2535       C  0.89252244  0.57386617  0.69899597     0.19100
C2536       C  0.92039236  0.60051894  0.69606738     0.21800
C2537       C  0.92382727  0.62827129  0.69867793    -0.40200
C2538       C  0.89726054  0.62724273  0.70472226     0.20600
N2539       N  0.84769162  0.60574907  0.71372458    -0.33500
C2540       C  0.86191712  0.63585696  0.71466009    -0.11100
C2541       C  0.89283331  0.65003551  0.70916735    -0.29900
N2542       N  0.94221302  0.59552694  0.69128307    -0.46500
C2543       C  0.92810490  0.56550739  0.69121092    -0.05700
C2544       C  0.89712098  0.55118996  0.69583883    -0.23100
H2545       H  0.84419318  0.55200599  0.70738063     0.18700
H2546       H  0.94559456  0.64913972  0.69656537     0.17500
H2547       H  0.90976114  0.67380447  0.70855978     0.13800
H2548       H  0.88031998  0.52748228  0.69721300     0.13600
H2549       H  0.82466341  0.58977526  0.71710250     0.31800
H2550       H  0.96526785  0.61154583  0.68853593     0.34600
C2551       C  0.90103337  0.77251242  0.71273623     0.20200
C2552       C  0.92547201  0.79609093  0.69756145    -0.39700
C2553       C  0.92644109  0.82259155  0.70043373     0.19100
C2554       C  0.90519738  0.82566673  0.71782807     0.21800
C2555       C  0.88102704  0.80222642  0.73340758    -0.40200
C2556       C  0.87954110  0.77540714  0.72981185     0.20600
N2557       N  0.89342378  0.74423596  0.71113318    -0.33500
C2558       C  0.86662448  0.72889207  0.72678955    -0.11100
C2559       C  0.85725694  0.74754668  0.73891663    -0.29900
N2560       N  0.90978651  0.85220690  0.71506816    -0.46500
C2561       C  0.93367370  0.86573941  0.69531983    -0.05700
C2562       C  0.94482883  0.84812743  0.68581129    -0.23100
H2563       H  0.94153696  0.79342397  0.68321841     0.18700
H2564       H  0.86371704  0.80417496  0.74598708     0.17500
H2565       H  0.83637857  0.74128169  0.75152661     0.13800
H2566       H  0.96293372  0.85273885  0.66933044     0.13600
H2567       H  0.90499949  0.73558793  0.69892352     0.31800
H2568       H  0.89652204  0.85992411  0.72473755     0.34600
C2569       C  0.72504431  0.59831770  0.71458528     0.20200
C2570       C  0.70070602  0.57284163  0.70105275    -0.39700
C2571       C  0.67491264  0.57300103  0.70186712     0.19100
C2572       C  0.67321766  0.59636778  0.71585641     0.21800
C2573       C  0.69746559  0.62171069  0.72963146    -0.40200
C2574       C  0.72352561  0.62190840  0.72814229     0.20600
N2575       N  0.75286384  0.60479884  0.71437930    -0.33500
C2576       C  0.76931543  0.63291370  0.72740485    -0.11100
C2577       C  0.75177288  0.64428581  0.73645098    -0.29900
N2578       N  0.64688408  0.59193133  0.71216487    -0.46500
C2579       C  0.63201684  0.56591040  0.69523102    -0.05700
C2580       C  0.64868555  0.55337116  0.68835731    -0.23100
H2581       H  0.70225163  0.55492040  0.68948701     0.18700
H2582       H  0.69657000  0.64050938  0.73953893     0.17500
H2583       H  0.75904615  0.66644503  0.74641701     0.13800
H2584       H  0.64285294  0.53323867  0.67448660     0.13600
H2585       H  0.76053061  0.59150930  0.70463990     0.31800
H2586       H  0.64001712  0.60639398  0.71951436     0.34600
C2587       C  0.87222451  0.60219699  0.95942284     0.20200
C2588       C  0.86871506  0.57440696  0.95571922    -0.39700
C2589       C  0.89528977  0.57547468  0.95011866     0.19100
C2590       C  0.92325784  0.60218417  0.94840450     0.21800
C2591       C  0.92678535  0.63003843  0.95212281    -0.40200
C2592       C  0.90014461  0.62895371  0.95770903     0.20600
N2593       N  0.85039414  0.60712359  0.46484589    -0.33500
C2594       C  0.86450659  0.63723999  0.96662667    -0.11100
C2595       C  0.89555638  0.65167457  0.96232839    -0.29900
N2596       N  0.94497209  0.59704031  0.94316701    -0.46500
C2597       C  0.93060578  0.56687248  0.94154675    -0.05700
C2598       C  0.89965194  0.55264448  0.94570481    -0.23100
H2599       H  0.84690098  0.55349828  0.45711308     0.18700
H2600       H  0.94860667  0.65095539  0.95081840     0.17500
H2601       H  0.91242817  0.67551198  0.96244372     0.13800
H2602       H  0.88268757  0.52884700  0.94579928     0.13600
H2603       H  0.82736842  0.59101360  0.46715456     0.31800
H2604       H  0.96808087  0.61301113  0.94101372     0.34600
C2605       C  0.90329855  0.82465305  0.96658555     0.20200
C2606       C  0.87920979  0.80127343  0.98228371    -0.39700
C2607       C  0.87870904  0.77504163  0.98005341     0.19100
C2608       C  0.90096451  0.77264936  0.96405264     0.21800
C2609       C  0.92525631  0.79614837  0.94870575    -0.40200
C2610       C  0.92529654  0.82203912  0.95027045     0.20600
N2611       N  0.90748507  0.85085815  0.96309384    -0.33500
C2612       C  0.93195694  0.86464162  0.94403289    -0.11100
C2613       C  0.94374989  0.84747691  0.93555640    -0.29900
N2614       N  0.89416058  0.74475404  0.96341420    -0.46500
C2615       C  0.86710492  0.72910934  0.97856488    -0.05700
C2616       C  0.85679522  0.74723075  0.48950695    -0.23100
H2617       H  0.86136050  0.80283149  0.49405520     0.18700
H2618       H  0.94197340  0.79384121  0.93524500     0.17500
H2619       H  0.96260814  0.85249101  0.91996524     0.13800
H2620       H  0.83547476  0.74056619  0.50134977     0.13600
H2621       H  0.89384201  0.85832717  0.97206925     0.31800
H2622       H  0.90635685  0.73646113  0.95196482     0.34600
C2623       C  0.72594769  0.62112471  0.97821789     0.20200
C2624       C  0.70052623  0.62229098  0.48161215    -0.39700
C2625       C  0.67533682  0.59802764  0.96798515     0.19100
C2626       C  0.67563255  0.57460923  0.95192882     0.21800
C2627       C  0.70065027  0.57289296  0.94948629    -0.40200
C2628       C  0.72571975  0.59700389  0.96331228     0.20600
N2629       N  0.75353425  0.64270895  0.48644669    -0.33500
C2630       C  0.77086644  0.63209890  0.97691214    -0.11100
C2631       C  0.75422653  0.60350933  0.96273492    -0.29900
N2632       N  0.65030273  0.55622113  0.93820009    -0.46500
C2633       C  0.63366252  0.56783978  0.94582174    -0.05700
C2634       C  0.64825904  0.59363736  0.96472441    -0.23100
H2635       H  0.70079831  0.64134886  0.49280783     0.18700
H2636       H  0.70107865  0.55486150  0.93655256     0.17500
H2637       H  0.76236710  0.59016478  0.95178202     0.13800
H2638       H  0.64093527  0.60828576  0.97323508     0.13600
H2639       H  0.76035936  0.66370867  0.49704795     0.31800
H2640       H  0.64501976  0.53744229  0.92385208     0.34600
loop_ 
_geom_bond_atom_site_label_1 
_geom_bond_atom_site_label_2 
_geom_bond_distance 
_geom_bond_site_symmetry_2 
_ccdc_geom_bond_type 
C1            N2   1.357       .  A
C1            N6   1.355       .  A
C1          C614   1.465       .  S
N2            C3   1.358       .  A
C3            N4   1.358       .  A
C3          C650   1.470       .  S
N4            C5   1.359       .  A
C5            N6   1.355       .  A
C5          C635   1.464       .  S
C7            N8   1.355       .  A
C7           N12   1.357       .  A
C7          C230   1.466       .  S
N8            C9   1.355       .  A
C9           N10   1.358       .  A
C9          C248   1.465       .  S
N10          C11   1.359       .  A
C11          N12   1.358       .  A
C11         C266   1.469       .  S
C13          N14   1.355       .  A
C13          N18   1.356       .  A
C13         C215   1.465       .  S
N14          C15   1.356       .  A
C15          N16   1.359       .  A
C15         C176   1.466       .  S
N16          C17   1.359       .  A
C17          N18   1.357       .  A
C17         C194   1.467       .  S
C19          N20   1.358       .  A
C19          N24   1.356       .  A
C19         C158   1.466       .  S
N20          C21   1.358       .  A
C21          N22   1.358       .  A
C21         C125   1.466       .  S
N22          C23   1.357       .  A
C23          N24   1.355       .  A
C23         C140   1.466       .  S
N25          N26   1.320       .  A
N25          N31   1.316       .  A
N25         Mn54   2.201       .  S
N26          C33   1.352       .  A
N27          N29   1.315       .  A
N27          N28   1.320       .  A
N27         Mn43   2.200       .  S
N28          C34   1.352       .  A
N29          N30   1.319       .  A
N29         Mn54   2.193       .  S
N30          C34   1.350       .  A
N31          N32   1.321       .  A
N31         Mn43   2.203       .  S
N32          C33   1.353       .  A
C33         C323   1.467       .  S
C34         C179   1.462       .  S
N35          N36   1.320       .  A
N35        N2021   1.316       .  A
N35         Mn65   2.194       .  S
N36          C44   1.350       .  A
N37          N38   1.319       .  A
N37          N39   1.315       .  A
N37        Mn703   2.195       .  S
N38          C45   1.351       .  A
N39          N40   1.319       .  A
N39       Mn1385   2.194   1_455  S
N40          C45   1.351       .  A
N41          N42   1.321       .  A
N41        N2015   1.316   1_445  A
N41         Mn43   2.206       .  S
N42        C2024   1.353   1_545  A
Mn43        N697   2.195   1_545  S
Mn43      Cl2047   2.546   1_445  S
C44        N2022   1.353       .  A
C44         C101   1.463       .  S
C45         C212   1.463       .  S
N46          N47   1.319       .  A
N46          N52   1.314       .  A
N46       Mn1374   2.190       .  S
N47          C55   1.350       .  A
N48          N49   1.320       .  A
N48        N2030   1.316       .  A
N48         Mn66   2.201       .  S
N49         C386   1.352       .  A
N50          N51   1.320       .  A
N50        N2028   1.316   1_445  A
N50         Mn54   2.203       .  S
N51        C2366   1.352   1_455  A
N52          N53   1.319       .  A
N52        Mn726   2.197   1_545  S
N53          C55   1.352       .  A
Mn54       N1366   2.190   1_455  S
Mn54      Cl2047   2.541   1_445  S
C55         C287   1.463       .  S
C56         N379   1.352   1_554  A
C56        N2361   1.352   1_554  A
C56          C89   1.463       .  S
N57          N58   1.318       .  A
N57          N63   1.315       .  A
N57         Mn65   2.189       .  S
N58          C68   1.350       .  A
N59          N60   1.320       .  A
N59          N61   1.316       .  A
N59         Mn66   2.199       .  S
N60          C69   1.352       .  A
N61          N62   1.319       .  A
N61         Mn65   2.196       .  S
N62          C69   1.350       .  A
N63          N64   1.320       .  A
N63         Mn66   2.200       .  S
N64          C68   1.351       .  A
Mn65       N1359   2.194       .  S
Mn65        Cl67   2.542       .  S
Mn66        N712   2.197       .  S
Mn66        Cl67   2.546       .  S
Cl67      Mn2023   2.546       .  S
Cl67      Mn2034   2.541       .  S
C68         C302   1.460       .  S
C69         C197   1.462       .  S
N70          N71   1.321       .  A
N70          N76   1.315       .  A
N70         Mn99   2.206       .  S
N71          C78   1.352       .  A
N72          N74   1.316       .  A
N72          N73   1.321       .  A
N72         Mn88   2.206       .  S
N73          C79   1.353       .  A
N74          N75   1.319       .  A
N74         Mn99   2.194       .  S
N75          C79   1.351       .  A
N76          N77   1.319       .  A
N76         Mn88   2.193       .  S
N77          C78   1.351       .  A
C78         C269   1.464       .  S
C79         C122   1.465       .  S
N80          N81   1.321       .  A
N80        N2066   1.316       .  A
N80        Mn110   2.203       .  S
N81          C89   1.352       .  A
N82          N83   1.321       .  A
N82          N84   1.314       .  A
N82        Mn748   2.198       .  S
N83          C90   1.352       .  A
N84          N85   1.318       .  A
N84       Mn1430   2.189   1_455  S
N85          C90   1.350       .  A
N86          N87   1.320       .  A
N86        N2060   1.316   1_445  A
N86         Mn88   2.200       .  S
N87        C2069   1.351   1_545  A
Mn88        N742   2.198   1_545  S
Mn88      Cl2092   2.547   1_445  S
C89        N2067   1.351       .  A
C90         C161   1.463       .  S
N91          N92   1.320       .  A
N91          N97   1.315       .  A
N91       Mn1419   2.202       .  S
N92         C100   1.352       .  A
N93          N94   1.321       .  A
N93        N2075   1.316       .  A
N93        Mn111   2.204       .  S
N94         C101   1.352       .  A
N95          N96   1.320       .  A
N95        N2073   1.316   1_445  A
N95         Mn99   2.197       .  S
N96        C2081   1.351   1_455  A
N97          N98   1.320       .  A
N97        Mn771   2.194   1_545  S
N98         C100   1.351       .  A
Mn99       N1411   2.202   1_455  S
Mn99      Cl2092   2.541   1_445  S
C100        C233   1.465       .  S
C101       N2076   1.351       .  A
N102        N103   1.319       .  A
N102        N108   1.315       .  A
N102       Mn110   2.194       .  S
N103        C113   1.351       .  A
N104        N105   1.320       .  A
N104        N106   1.316       .  A
N104       Mn111   2.202       .  S
N105        C114   1.352       .  A
N106        N107   1.320       .  A
N106       Mn110   2.198       .  S
N107        C114   1.351       .  A
N108        N109   1.320       .  A
N108       Mn111   2.198       .  S
N109        C113   1.351       .  A
Mn110      N1404   2.189       .  S
Mn110      Cl112   2.541       .  S
Mn111       N757   2.194       .  S
Mn111      Cl112   2.547       .  S
Cl112     Mn2068   2.547       .  S
Cl112     Mn2079   2.541       .  S
C113        C251   1.462       .  S
C114        C143   1.463       .  S
C115        N121   1.343       .  A
C115        C120   1.385       .  A
C115        C116   1.402       .  A
C116        C117   1.402       .  A
C116        H127   1.082       .  S
C117        C126   1.377       .  A
C117        C118   1.385       .  A
C118        N124   1.342       .  A
C118        C119   1.402       .  A
C119        C120   1.402       .  A
C119        H128   1.082       .  S
C120        C123   1.377       .  A
N121        C122   1.354       .  A
N121        H131   1.045       .  S
C122        C123   1.393       .  A
C123        H129   1.083       .  S
N124        C125   1.355       .  A
N124        H132   1.045       .  S
C125        C126   1.394       .  A
C126        H130   1.082       .  S
C133        N139   1.343       .  A
C133        C138   1.385       .  A
C133        C134   1.402       .  A
C134        C135   1.402       .  A
C134        H145   1.082       .  S
C135        C144   1.376       .  A
C135        C136   1.385       .  A
C136        N142   1.343       .  A
C136        C137   1.402       .  A
C137        C138   1.401       .  A
C137        H146   1.082       .  S
C138        C141   1.375       .  A
N139        C140   1.354       .  A
N139        H149   1.045       .  S
C140        C141   1.394       .  A
C141        H147   1.083       .  S
N142        C143   1.354       .  A
N142        H150   1.044       .  S
C143        C144   1.393       .  A
C144        H148   1.082       .  S
C151        N157   1.342       .  A
C151        C156   1.385       .  A
C151        C152   1.400       .  A
C152        C153   1.400       .  A
C152        H163   1.082       .  S
C153        C162   1.373       .  A
C153        C154   1.385       .  A
C154        N160   1.343       .  A
C154        C155   1.401       .  A
C155        C156   1.401       .  A
C155        H164   1.082       .  S
C156        C159   1.374       .  A
N157        C158   1.354       .  A
N157        H167   1.044       .  S
C158        C159   1.394       .  A
C159        H165   1.083       .  S
N160        C161   1.354       .  A
N160        H168   1.045       .  S
C161        C162   1.393       .  A
C162        H166   1.082       .  S
C169        N175   1.341       .  A
C169        C174   1.385       .  A
C169        C170   1.402       .  A
C170        C171   1.400       .  A
C170        H181   1.083       .  S
C171        C180   1.376       .  A
C171        C172   1.386       .  A
C172        N178   1.342       .  A
C172        C173   1.402       .  A
C173        C174   1.401       .  A
C173        H182   1.082       .  S
C174        C177   1.378       .  A
N175        C176   1.355       .  A
N175        H185   1.045       .  S
C176        C177   1.393       .  A
C177        H183   1.082       .  S
N178        C179   1.353       .  A
N178        H186   1.045       .  S
C179        C180   1.393       .  A
C180        H184   1.083       .  S
C187        N193   1.344       .  A
C187        C192   1.385       .  A
C187        C188   1.403       .  A
C188        C189   1.403       .  A
C188        H199   1.082       .  S
C189        C198   1.377       .  A
C189        C190   1.386       .  A
C190        N196   1.342       .  A
C190        C191   1.400       .  A
C191        C192   1.400       .  A
C191        H200   1.082       .  S
C192        C195   1.374       .  A
N193        C194   1.355       .  A
N193        H203   1.045       .  S
C194        C195   1.393       .  A
C195        H201   1.083       .  S
N196        C197   1.353       .  A
N196        H204   1.045       .  S
C197        C198   1.393       .  A
C198        H202   1.082       .  S
C205        N211   1.341       .  A
C205        C210   1.385       .  A
C205        C206   1.401       .  A
C206        C207   1.400       .  A
C206        H217   1.082       .  S
C207        C216   1.375       .  A
C207        C208   1.385       .  A
C208        N214   1.341       .  A
C208        C209   1.401       .  A
C209        C210   1.400       .  A
C209        H218   1.082       .  S
C210        C213   1.375       .  A
N211        C212   1.354       .  A
N211        H221   1.045       .  S
C212        C213   1.393       .  A
C213        H219   1.082       .  S
N214        C215   1.354       .  A
N214        H222   1.046       .  S
C215        C216   1.394       .  A
C216        H220   1.082       .  S
C223        N229   1.342       .  A
C223        C228   1.385       .  A
C223        C224   1.402       .  A
C224        C225   1.401       .  A
C224        H235   1.082       .  S
C225        C234   1.376       .  A
C225        C226   1.385       .  A
C226        N232   1.342       .  A
C226        C227   1.401       .  A
C227        C228   1.400       .  A
C227        H236   1.082       .  S
C228        C231   1.374       .  A
N229        C230   1.354       .  A
N229        H239   1.046       .  S
C230        C231   1.394       .  A
C231        H237   1.083       .  S
N232        C233   1.354       .  A
N232        H240   1.045       .  S
C233        C234   1.394       .  A
C234        H238   1.082       .  S
C241        N247   1.341       .  A
C241        C246   1.385       .  A
C241        C242   1.401       .  A
C242        C243   1.400       .  A
C242        H253   1.083       .  S
C243        C252   1.376       .  A
C243        C244   1.386       .  A
C244        N250   1.342       .  A
C244        C245   1.402       .  A
C245        C246   1.401       .  A
C245        H254   1.082       .  S
C246        C249   1.378       .  A
N247        C248   1.354       .  A
N247        H257   1.045       .  S
C248        C249   1.393       .  A
C249        H255   1.082       .  S
N250        C251   1.354       .  A
N250        H258   1.045       .  S
C251        C252   1.392       .  A
C252        H256   1.083       .  S
C259        N265   1.342       .  A
C259        C264   1.385       .  A
C259        C260   1.403       .  A
C260        C261   1.402       .  A
C260        H271   1.082       .  S
C261        C270   1.378       .  A
C261        C262   1.385       .  A
C262        N268   1.342       .  A
C262        C263   1.403       .  A
C263        C264   1.402       .  A
C263        H272   1.082       .  S
C264        C267   1.378       .  A
N265        C266   1.355       .  A
N265        H275   1.045       .  S
C266        C267   1.395       .  A
C267        H273   1.082       .  S
N268        C269   1.354       .  A
N268        H276   1.045       .  S
C269        C270   1.393       .  A
C270        H274   1.083       .  S
C277        N613   1.341       .  A
C277        C282   1.385       .  A
C277        C278   1.400       .  A
C278        C279   1.399       .  A
C278        H619   1.082       .  S
C279        C288   1.374       .  A
C279        C280   1.385       .  A
C280        N286   1.342       .  A
C280        C281   1.403       .  A
C281        C282   1.402       .  A
C281        H290   1.082       .  S
C282        C285   1.376       .  A
N283        C607   1.341       .  A
N283        C614   1.354       .  A
N283        H293   1.043       .  S
C284        N613   1.354       .  A
C284        C331   1.465       .  S
C284        C285   1.395       .  A
C285        H291   1.083       .  S
N286        C287   1.355       .  A
N286        H294   1.045       .  S
C287        C288   1.392       .  A
C288        H292   1.082       .  S
H289        C608   1.082       .  S
C295        N301   1.342       .  A
C295        C300   1.385       .  A
C295        C296   1.402       .  A
C296        C297   1.401       .  A
C296        H637   1.082       .  S
C297        C298   1.385       .  A
C297        C636   1.377       .  A
C298        N304   1.340       .  A
C298        C299   1.400       .  A
C299        C300   1.399       .  A
C299        H308   1.083       .  S
C300        C303   1.375       .  A
N301        C302   1.354       .  A
N301        H311   1.044       .  S
C302        C303   1.392       .  A
C303        H309   1.083       .  S
N304        C305   1.354       .  A
N304        H312   1.045       .  S
C305        C335   1.464       .  S
C305        C636   1.393       .  A
C306        C627   1.377       .  A
C306        C635   1.393       .  A
C306        H310   1.082   1_556  S
H307        C626   1.082       .  S
C313        N649   1.344       .  A
C313        C318   1.385       .  A
C313        C644   1.404       .  A
C314        C643   1.404       .  A
C314        C645   1.403       .  A
C314        H325   1.082       .  S
C315        C324   1.378       .  A
C315        C316   1.385       .  A
C315        C644   1.403       .  A
C316        N322   1.343       .  A
C316        C317   1.402       .  A
C317        C318   1.402       .  A
C317        H326   1.082       .  S
C318        C321   1.376       .  A
N319        C643   1.344       .  A
N319        C650   1.355       .  A
N319        H329   1.045       .  S
C320        N649   1.355       .  A
C320        C333   1.470       .  S
C320        C321   1.394       .  A
C321        H327   1.083       .  S
N322        C323   1.354       .  A
N322        H330   1.045       .  S
C323        C324   1.394       .  A
C324        H328   1.082       .  S
C331        N332   1.357       .  A
C331        N336   1.355       .  A
N332        C333   1.358       .  A
C333        N334   1.358       .  A
N334        C335   1.359       .  A
C335        N336   1.355       .  A
C337        N338   1.355       .  A
C337        N342   1.357       .  A
C337        C560   1.466       .  S
N338        C339   1.355       .  A
C339        N340   1.358       .  A
C339        C578   1.465       .  S
N340        C341   1.359       .  A
C341        N342   1.358       .  A
C341        C596   1.469       .  S
C343        N344   1.355       .  A
C343        N348   1.356       .  A
C343        C545   1.465       .  S
N344        C345   1.356       .  A
C345        N346   1.359       .  A
C345        C506   1.466       .  S
N346        C347   1.359       .  A
C347        N348   1.357       .  A
C347        C524   1.467       .  S
C349        N350   1.358       .  A
C349        N354   1.356       .  A
C349        C488   1.466       .  S
N350        C351   1.358       .  A
C351        N352   1.358       .  A
C351        C455   1.466       .  S
N352        C353   1.357       .  A
C353        N354   1.355       .  A
C353        C470   1.466       .  S
N355        N356   1.320       .  A
N355        N361   1.316       .  A
N355       Mn384   2.201       .  S
N356        C363   1.352       .  A
N357        N359   1.315       .  A
N357        N358   1.320       .  A
N357       Mn373   2.200       .  S
N358        C364   1.352       .  A
N359        N360   1.319       .  A
N359       Mn384   2.193       .  S
N360        C364   1.350       .  A
N361        N362   1.321       .  A
N361       Mn373   2.203       .  S
N362        C363   1.353       .  A
C363        C653   1.467       .  S
C364        C509   1.462       .  S
N365       N2351   1.316       .  A
N365        N366   1.320       .  A
N365       Mn395   2.194       .  S
N366        C374   1.350       .  A
N367        N368   1.319       .  A
N367        N369   1.315       .  A
N367      Mn1033   2.195       .  S
N368        C375   1.351       .  A
N369        N370   1.319       .  A
N369      Mn1715   2.194   1_455  S
N370        C375   1.351       .  A
N371       N2345   1.316   1_445  A
N371        N372   1.321       .  A
N371       Mn373   2.206       .  S
N372       C2354   1.353   1_545  A
Mn373      N1027   2.195   1_545  S
Mn373     Cl2377   2.546   1_445  S
C374       N2352   1.353       .  A
C374        C431   1.463       .  S
C375        C542   1.463       .  S
N376        N377   1.319       .  A
N376        N382   1.314       .  A
N376      Mn1704   2.190       .  S
N377        C385   1.350       .  A
N378       N2360   1.316       .  A
N378        N379   1.320       .  A
N378       Mn396   2.201       .  S
N380       N2358   1.316   1_445  A
N380        N381   1.320       .  A
N380       Mn384   2.203       .  S
N381       C2036   1.352   1_456  A
N382        N383   1.319       .  A
N382      Mn1056   2.197   1_545  S
N383        C385   1.352       .  A
Mn384      N1696   2.190   1_455  S
Mn384     Cl2377   2.541   1_445  S
C385        C617   1.463       .  S
C386       N2031   1.352       .  A
C386        C419   1.463       .  S
N387        N388   1.318       .  A
N387        N393   1.315       .  A
N387       Mn395   2.189       .  S
N388        C398   1.350       .  A
N389        N390   1.320       .  A
N389        N391   1.316       .  A
N389       Mn396   2.199       .  S
N390        C399   1.352       .  A
N391        N392   1.319       .  A
N391       Mn395   2.196       .  S
N392        C399   1.350       .  A
N393        N394   1.320       .  A
N393       Mn396   2.200       .  S
N394        C398   1.351       .  A
Mn395      N1689   2.194       .  S
Mn395      Cl397   2.542       .  S
Mn396      N1042   2.197       .  S
Mn396      Cl397   2.546       .  S
Cl397     Mn2353   2.546       .  S
Cl397     Mn2364   2.541       .  S
C398        C632   1.460       .  S
C399        C527   1.462       .  S
N400        N401   1.321       .  A
N400        N406   1.315       .  A
N400       Mn429   2.206       .  S
N401        C408   1.352       .  A
N402        N404   1.316       .  A
N402        N403   1.321       .  A
N402       Mn418   2.206       .  S
N403        C409   1.353       .  A
N404        N405   1.319       .  A
N404       Mn429   2.194       .  S
N405        C409   1.351       .  A
N406        N407   1.319       .  A
N406       Mn418   2.193       .  S
N407        C408   1.351       .  A
C408        C599   1.464       .  S
C409        C452   1.465       .  S
N410       N2396   1.316       .  A
N410        N411   1.321       .  A
N410       Mn440   2.203       .  S
N411        C419   1.352       .  A
N412        N413   1.321       .  A
N412        N414   1.314       .  A
N412      Mn1078   2.198       .  S
N413        C420   1.352       .  A
N414        N415   1.318       .  A
N414      Mn1760   2.189   1_455  S
N415        C420   1.350       .  A
N416       N2390   1.316   1_445  A
N416        N417   1.320       .  A
N416       Mn418   2.200       .  S
N417       C2399   1.351   1_545  A
Mn418      N1072   2.198   1_545  S
Mn418     Cl2422   2.547   1_445  S
C419       N2397   1.351       .  A
C420        C491   1.463       .  S
N421        N422   1.320       .  A
N421        N427   1.315       .  A
N421      Mn1749   2.202       .  S
N422        C430   1.352       .  A
N423       N2405   1.316       .  A
N423        N424   1.321       .  A
N423       Mn441   2.204       .  S
N424        C431   1.352       .  A
N425       N2403   1.316   1_445  A
N425        N426   1.320       .  A
N425       Mn429   2.197       .  S
N426       C2411   1.351   1_455  A
N427        N428   1.320       .  A
N427      Mn1101   2.194   1_545  S
N428        C430   1.351       .  A
Mn429      N1741   2.202   1_455  S
Mn429     Cl2422   2.541   1_445  S
C430        C563   1.465       .  S
C431       N2406   1.351       .  A
N432        N433   1.319       .  A
N432        N438   1.315       .  A
N432       Mn440   2.194       .  S
N433        C443   1.351       .  A
N434        N435   1.320       .  A
N434        N436   1.316       .  A
N434       Mn441   2.202       .  S
N435        C444   1.352       .  A
N436        N437   1.320       .  A
N436       Mn440   2.198       .  S
N437        C444   1.351       .  A
N438        N439   1.320       .  A
N438       Mn441   2.198       .  S
N439        C443   1.351       .  A
Mn440      N1734   2.189       .  S
Mn440      Cl442   2.541       .  S
Mn441      N1087   2.194       .  S
Mn441      Cl442   2.547       .  S
Cl442     Mn2398   2.547       .  S
Cl442     Mn2409   2.541       .  S
C443        C581   1.462       .  S
C444        C473   1.463       .  S
C445        N451   1.343       .  A
C445        C450   1.385       .  A
C445        C446   1.402       .  A
C446        C447   1.402       .  A
C446        H457   1.082       .  S
C447        C456   1.377       .  A
C447        C448   1.385       .  A
C448        N454   1.342       .  A
C448        C449   1.402       .  A
C449        C450   1.402       .  A
C449        H458   1.082       .  S
C450        C453   1.377       .  A
N451        C452   1.354       .  A
N451        H461   1.045       .  S
C452        C453   1.393       .  A
C453        H459   1.083       .  S
N454        C455   1.355       .  A
N454        H462   1.045       .  S
C455        C456   1.394       .  A
C456        H460   1.082       .  S
C463        N469   1.343       .  A
C463        C468   1.385       .  A
C463        C464   1.402       .  A
C464        C465   1.402       .  A
C464        H475   1.082       .  S
C465        C474   1.376       .  A
C465        C466   1.385       .  A
C466        N472   1.343       .  A
C466        C467   1.402       .  A
C467        C468   1.401       .  A
C467        H476   1.082       .  S
C468        C471   1.375       .  A
N469        C470   1.354       .  A
N469        H479   1.045       .  S
C470        C471   1.394       .  A
C471        H477   1.083       .  S
N472        C473   1.354       .  A
N472        H480   1.044       .  S
C473        C474   1.393       .  A
C474        H478   1.082       .  S
C481        N487   1.342       .  A
C481        C486   1.385       .  A
C481        C482   1.400       .  A
C482        C483   1.400       .  A
C482        H493   1.082       .  S
C483        C492   1.373       .  A
C483        C484   1.385       .  A
C484        N490   1.343       .  A
C484        C485   1.401       .  A
C485        C486   1.401       .  A
C485        H494   1.082       .  S
C486        C489   1.374       .  A
N487        C488   1.354       .  A
N487        H497   1.044       .  S
C488        C489   1.394       .  A
C489        H495   1.083       .  S
N490        C491   1.354       .  A
N490        H498   1.045       .  S
C491        C492   1.393       .  A
C492        H496   1.082       .  S
C499        N505   1.341       .  A
C499        C504   1.385       .  A
C499        C500   1.402       .  A
C500        C501   1.400       .  A
C500        H511   1.083       .  S
C501        C510   1.376       .  A
C501        C502   1.386       .  A
C502        N508   1.342       .  A
C502        C503   1.402       .  A
C503        C504   1.401       .  A
C503        H512   1.082       .  S
C504        C507   1.378       .  A
N505        C506   1.355       .  A
N505        H515   1.045       .  S
C506        C507   1.393       .  A
C507        H513   1.082       .  S
N508        C509   1.353       .  A
N508        H516   1.045       .  S
C509        C510   1.393       .  A
C510        H514   1.083       .  S
C517        N523   1.344       .  A
C517        C522   1.385       .  A
C517        C518   1.403       .  A
C518        C519   1.403       .  A
C518        H529   1.082       .  S
C519        C528   1.377       .  A
C519        C520   1.386       .  A
C520        N526   1.342       .  A
C520        C521   1.400       .  A
C521        C522   1.400       .  A
C521        H530   1.082       .  S
C522        C525   1.374       .  A
N523        C524   1.355       .  A
N523        H533   1.045       .  S
C524        C525   1.393       .  A
C525        H531   1.083       .  S
N526        C527   1.353       .  A
N526        H534   1.045       .  S
C527        C528   1.393       .  A
C528        H532   1.082       .  S
C535        N541   1.341       .  A
C535        C540   1.385       .  A
C535        C536   1.401       .  A
C536        C537   1.400       .  A
C536        H547   1.082       .  S
C537        C546   1.375       .  A
C537        C538   1.385       .  A
C538        N544   1.341       .  A
C538        C539   1.401       .  A
C539        C540   1.400       .  A
C539        H548   1.082       .  S
C540        C543   1.375       .  A
N541        C542   1.354       .  A
N541        H551   1.045       .  S
C542        C543   1.393       .  A
C543        H549   1.082       .  S
N544        C545   1.354       .  A
N544        H552   1.046       .  S
C545        C546   1.394       .  A
C546        H550   1.082       .  S
C553        N559   1.342       .  A
C553        C558   1.385       .  A
C553        C554   1.402       .  A
C554        C555   1.401       .  A
C554        H565   1.082       .  S
C555        C564   1.376       .  A
C555        C556   1.385       .  A
C556        N562   1.342       .  A
C556        C557   1.401       .  A
C557        C558   1.400       .  A
C557        H566   1.082       .  S
C558        C561   1.374       .  A
N559        C560   1.354       .  A
N559        H569   1.046       .  S
C560        C561   1.394       .  A
C561        H567   1.083       .  S
N562        C563   1.354       .  A
N562        H570   1.045       .  S
C563        C564   1.394       .  A
C564        H568   1.082       .  S
C571        N577   1.341       .  A
C571        C576   1.385       .  A
C571        C572   1.401       .  A
C572        C573   1.400       .  A
C572        H583   1.083       .  S
C573        C582   1.376       .  A
C573        C574   1.386       .  A
C574        N580   1.342       .  A
C574        C575   1.402       .  A
C575        C576   1.401       .  A
C575        H584   1.082       .  S
C576        C579   1.378       .  A
N577        C578   1.354       .  A
N577        H587   1.045       .  S
C578        C579   1.393       .  A
C579        H585   1.082       .  S
N580        C581   1.354       .  A
N580        H588   1.045       .  S
C581        C582   1.392       .  A
C582        H586   1.083       .  S
C589        N595   1.342       .  A
C589        C594   1.385       .  A
C589        C590   1.403       .  A
C590        C591   1.402       .  A
C590        H601   1.082       .  S
C591        C600   1.378       .  A
C591        C592   1.385       .  A
C592        N598   1.342       .  A
C592        C593   1.403       .  A
C593        C594   1.402       .  A
C593        H602   1.082       .  S
C594        C597   1.378       .  A
N595        C596   1.355       .  A
N595        H605   1.045       .  S
C596        C597   1.395       .  A
C597        H603   1.082       .  S
N598        C599   1.354       .  A
N598        H606   1.045       .  S
C599        C600   1.393       .  A
C600        H604   1.083       .  S
C607        C612   1.385       .  A
C607        C608   1.400       .  A
C608        C609   1.399       .  A
C609        C618   1.374       .  A
C609        C610   1.385       .  A
C610        N616   1.342       .  A
C610        C611   1.403       .  A
C611        C612   1.402       .  A
C611        H620   1.082       .  S
C612        C615   1.376       .  A
N613        H623   1.043       .  S
C614        C615   1.395       .  A
C615        H621   1.083       .  S
N616        C617   1.355       .  A
N616        H624   1.045       .  S
C617        C618   1.392       .  A
C618        H622   1.082       .  S
C625        N631   1.342       .  A
C625        C630   1.385       .  A
C625        C626   1.402       .  A
C626        C627   1.401       .  A
C627        C628   1.385       .  A
C628        N634   1.340       .  A
C628        C629   1.400       .  A
C629        C630   1.399       .  A
C629        H638   1.083       .  S
C630        C633   1.375       .  A
N631        C632   1.354       .  A
N631        H641   1.044       .  S
C632        C633   1.392       .  A
C633        H639   1.083       .  S
N634        C635   1.354       .  A
N634        H642   1.045       .  S
C636        H640   1.082       .  S
C643        C648   1.385       .  A
C644        H655   1.082       .  S
C645        C654   1.378       .  A
C645        C646   1.385       .  A
C646        N652   1.343       .  A
C646        C647   1.402       .  A
C647        C648   1.402       .  A
C647        H656   1.082       .  S
C648        C651   1.376       .  A
N649        H659   1.045       .  S
C650        C651   1.394       .  A
C651        H657   1.083       .  S
N652        C653   1.354       .  A
N652        H660   1.045       .  S
C653        C654   1.394       .  A
C654        H658   1.082       .  S
C661        N662   1.357       .  A
C661        N666   1.355       .  A
C661       C1274   1.465       .  S
N662        C663   1.358       .  A
C663        N664   1.358       .  A
C663       C1310   1.470       .  S
N664        C665   1.359       .  A
C665        N666   1.355       .  A
C665       C1295   1.464       .  S
C667        N668   1.355       .  A
C667        N672   1.357       .  A
C667        C890   1.466       .  S
N668        C669   1.355       .  A
C669        N670   1.358       .  A
C669        C908   1.465       .  S
N670        C671   1.359       .  A
C671        N672   1.358       .  A
C671        C926   1.469       .  S
C673        N674   1.355       .  A
C673        N678   1.356       .  A
C673        C875   1.465       .  S
N674        C675   1.356       .  A
C675        N676   1.359       .  A
C675        C836   1.466       .  S
N676        C677   1.359       .  A
C677        N678   1.357       .  A
C677        C854   1.467       .  S
C679        N680   1.358       .  A
C679        N684   1.356       .  A
C679        C818   1.466       .  S
N680        C681   1.358       .  A
C681        N682   1.358       .  A
C681        C785   1.466       .  S
N682        C683   1.357       .  A
C683        N684   1.355       .  A
C683        C800   1.466       .  S
N685        N686   1.320       .  A
N685        N691   1.316       .  A
N685       Mn714   2.201       .  S
N686        C693   1.352       .  A
N687        N689   1.315       .  A
N687        N688   1.320       .  A
N687       Mn703   2.200       .  S
N688        C694   1.352       .  A
N689        N690   1.319       .  A
N689       Mn714   2.193       .  S
N690        C694   1.350       .  A
N691        N692   1.321       .  A
N691       Mn703   2.203       .  S
N692        C693   1.353       .  A
C693        C983   1.467       .  S
C694        C839   1.462       .  S
N695       N1361   1.316   1_565  A
N695        N696   1.320       .  A
N695       Mn725   2.194       .  S
N696        C704   1.350       .  A
N697        N698   1.319       .  A
N697        N699   1.315       .  A
N698        C705   1.351       .  A
N699        N700   1.319       .  A
N699      Mn2045   2.194   1_455  S
N700        C705   1.351       .  A
N701       N1355   1.316   1_455  A
N701        N702   1.321       .  A
N701       Mn703   2.206       .  S
N702       C1364   1.353       .  A
Mn703     Cl1387   2.546   1_455  S
C704       N1362   1.353   1_565  A
C704        C761   1.463   1_565  S
C705        C872   1.463       .  S
N706        N707   1.319       .  A
N706        N712   1.314       .  A
N706      Mn2034   2.190       .  S
N707        C715   1.350       .  A
N708       N1370   1.316   1_565  A
N708        N709   1.320       .  A
N708       Mn726   2.201       .  S
N709       C1046   1.352   1_565  A
N710       N1368   1.316   1_455  A
N710        N711   1.320       .  A
N710       Mn714   2.203       .  S
N711       C1706   1.352   1_455  A
N712        N713   1.319       .  A
N713        C715   1.352       .  A
Mn714      N2026   2.190   1_455  S
Mn714     Cl1387   2.541   1_455  S
C715        C947   1.463       .  S
C716       N1039   1.352   1_544  A
C716       N1701   1.352   1_554  A
C716        C749   1.463   1_545  S
N717        N718   1.318       .  A
N717        N723   1.315       .  A
N717       Mn725   2.189       .  S
N718        C728   1.350       .  A
N719        N720   1.320       .  A
N719        N721   1.316       .  A
N719       Mn726   2.199       .  S
N720        C729   1.352       .  A
N721        N722   1.319       .  A
N721       Mn725   2.196       .  S
N722        C729   1.350       .  A
N723        N724   1.320       .  A
N723       Mn726   2.200       .  S
N724        C728   1.351       .  A
Mn725      N2019   2.194       .  S
Mn725      Cl727   2.542       .  S
Mn726      Cl727   2.546       .  S
Cl727     Mn1363   2.546   1_565  S
Cl727     Mn1374   2.541   1_565  S
C728        C962   1.460       .  S
C729        C857   1.462       .  S
N730        N731   1.321       .  A
N730        N736   1.315       .  A
N730       Mn759   2.206       .  S
N731        C738   1.352       .  A
N732        N734   1.316       .  A
N732        N733   1.321       .  A
N732       Mn748   2.206       .  S
N733        C739   1.353       .  A
N734        N735   1.319       .  A
N734       Mn759   2.194       .  S
N735        C739   1.351       .  A
N736        N737   1.319       .  A
N736       Mn748   2.193       .  S
N737        C738   1.351       .  A
C738        C929   1.464       .  S
C739        C782   1.465       .  S
N740       N1406   1.316   1_565  A
N740        N741   1.321       .  A
N740       Mn770   2.203       .  S
N741        C749   1.352       .  A
N742        N743   1.321       .  A
N742        N744   1.314       .  A
N743        C750   1.352       .  A
N744        N745   1.318       .  A
N744      Mn2090   2.189   1_455  S
N745        C750   1.350       .  A
N746       N1400   1.316   1_455  A
N746        N747   1.320       .  A
N746       Mn748   2.200       .  S
N747       C1409   1.351       .  A
Mn748     Cl1432   2.547   1_455  S
C749       N1407   1.351   1_565  A
C750        C821   1.463       .  S
N751        N752   1.320       .  A
N751        N757   1.315       .  A
N751      Mn2079   2.202       .  S
N752        C760   1.352       .  A
N753       N1415   1.316   1_565  A
N753        N754   1.321       .  A
N753       Mn771   2.204       .  S
N754        C761   1.352   1_565  A
N755       N1413   1.316   1_455  A
N755        N756   1.320       .  A
N755       Mn759   2.197       .  S
N756       C1421   1.351   1_455  A
N757        N758   1.320       .  A
N758        C760   1.351       .  A
Mn759      N2071   2.202   1_455  S
Mn759     Cl1432   2.541   1_455  S
C760        C893   1.465       .  S
C761       N1416   1.351       .  A
N762        N763   1.319       .  A
N762        N768   1.315       .  A
N762       Mn770   2.194       .  S
N763        C773   1.351       .  A
N764        N765   1.320       .  A
N764        N766   1.316       .  A
N764       Mn771   2.202       .  S
N765        C774   1.352       .  A
N766        N767   1.320       .  A
N766       Mn770   2.198       .  S
N767        C774   1.351       .  A
N768        N769   1.320       .  A
N768       Mn771   2.198       .  S
N769        C773   1.351       .  A
Mn770      N2064   2.189       .  S
Mn770      Cl772   2.541       .  S
Mn771      Cl772   2.547       .  S
Cl772     Mn1408   2.547   1_565  S
Cl772     Mn1419   2.541   1_565  S
C773        C911   1.462       .  S
C774        C803   1.463       .  S
C775        N781   1.343       .  A
C775        C780   1.385       .  A
C775        C776   1.402       .  A
C776        C777   1.402       .  A
C776        H787   1.082       .  S
C777        C786   1.377       .  A
C777        C778   1.385       .  A
C778        N784   1.342       .  A
C778        C779   1.402       .  A
C779        C780   1.402       .  A
C779        H788   1.082       .  S
C780        C783   1.377       .  A
N781        C782   1.354       .  A
N781        H791   1.045       .  S
C782        C783   1.393       .  A
C783        H789   1.083       .  S
N784        C785   1.355       .  A
N784        H792   1.045       .  S
C785        C786   1.394       .  A
C786        H790   1.082       .  S
C793        N799   1.343       .  A
C793        C798   1.385       .  A
C793        C794   1.402       .  A
C794        C795   1.402       .  A
C794        H805   1.082       .  S
C795        C804   1.376       .  A
C795        C796   1.385       .  A
C796        N802   1.343       .  A
C796        C797   1.402       .  A
C797        C798   1.401       .  A
C797        H806   1.082       .  S
C798        C801   1.375       .  A
N799        C800   1.354       .  A
N799        H809   1.045       .  S
C800        C801   1.394       .  A
C801        H807   1.083       .  S
N802        C803   1.354       .  A
N802        H810   1.044       .  S
C803        C804   1.393       .  A
C804        H808   1.082       .  S
C811        N817   1.342       .  A
C811        C816   1.385       .  A
C811        C812   1.400       .  A
C812        C813   1.400       .  A
C812        H823   1.082       .  S
C813        C822   1.373       .  A
C813        C814   1.385       .  A
C814        N820   1.343       .  A
C814        C815   1.401       .  A
C815        C816   1.401       .  A
C815        H824   1.082       .  S
C816        C819   1.374       .  A
N817        C818   1.354       .  A
N817        H827   1.044       .  S
C818        C819   1.394       .  A
C819        H825   1.083       .  S
N820        C821   1.354       .  A
N820        H828   1.045       .  S
C821        C822   1.393       .  A
C822        H826   1.082       .  S
C829        N835   1.341       .  A
C829        C834   1.385       .  A
C829        C830   1.402       .  A
C830        C831   1.400       .  A
C830        H841   1.083       .  S
C831        C840   1.376       .  A
C831        C832   1.386       .  A
C832        N838   1.342       .  A
C832        C833   1.402       .  A
C833        C834   1.401       .  A
C833        H842   1.082       .  S
C834        C837   1.378       .  A
N835        C836   1.355       .  A
N835        H845   1.045       .  S
C836        C837   1.393       .  A
C837        H843   1.082       .  S
N838        C839   1.353       .  A
N838        H846   1.045       .  S
C839        C840   1.393       .  A
C840        H844   1.083       .  S
C847        N853   1.344       .  A
C847        C852   1.385       .  A
C847        C848   1.403       .  A
C848        C849   1.403       .  A
C848        H859   1.082       .  S
C849        C858   1.377       .  A
C849        C850   1.386       .  A
C850        N856   1.342       .  A
C850        C851   1.400       .  A
C851        C852   1.400       .  A
C851        H860   1.082       .  S
C852        C855   1.374       .  A
N853        C854   1.355       .  A
N853        H863   1.045       .  S
C854        C855   1.393       .  A
C855        H861   1.083       .  S
N856        C857   1.353       .  A
N856        H864   1.045       .  S
C857        C858   1.393       .  A
C858        H862   1.082       .  S
C865        N871   1.341       .  A
C865        C870   1.385       .  A
C865        C866   1.401       .  A
C866        C867   1.400       .  A
C866        H877   1.082       .  S
C867        C876   1.375       .  A
C867        C868   1.385       .  A
C868        N874   1.341       .  A
C868        C869   1.401       .  A
C869        C870   1.400       .  A
C869        H878   1.082       .  S
C870        C873   1.375       .  A
N871        C872   1.354       .  A
N871        H881   1.045       .  S
C872        C873   1.393       .  A
C873        H879   1.082       .  S
N874        C875   1.354       .  A
N874        H882   1.046       .  S
C875        C876   1.394       .  A
C876        H880   1.082       .  S
C883        N889   1.342       .  A
C883        C888   1.385       .  A
C883        C884   1.402       .  A
C884        C885   1.401       .  A
C884        H895   1.082       .  S
C885        C894   1.376       .  A
C885        C886   1.385       .  A
C886        N892   1.342       .  A
C886        C887   1.401       .  A
C887        C888   1.400       .  A
C887        H896   1.082       .  S
C888        C891   1.374       .  A
N889        C890   1.354       .  A
N889        H899   1.046       .  S
C890        C891   1.394       .  A
C891        H897   1.083       .  S
N892        C893   1.354       .  A
N892        H900   1.045       .  S
C893        C894   1.394       .  A
C894        H898   1.082       .  S
C901        N907   1.341       .  A
C901        C906   1.385       .  A
C901        C902   1.401       .  A
C902        C903   1.400       .  A
C902        H913   1.083       .  S
C903        C912   1.376       .  A
C903        C904   1.386       .  A
C904        N910   1.342       .  A
C904        C905   1.402       .  A
C905        C906   1.401       .  A
C905        H914   1.082       .  S
C906        C909   1.378       .  A
N907        C908   1.354       .  A
N907        H917   1.045       .  S
C908        C909   1.393       .  A
C909        H915   1.082       .  S
N910        C911   1.354       .  A
N910        H918   1.045       .  S
C911        C912   1.392       .  A
C912        H916   1.083       .  S
C919        N925   1.342       .  A
C919        C924   1.385       .  A
C919        C920   1.403       .  A
C920        C921   1.402       .  A
C920        H931   1.082       .  S
C921        C930   1.378       .  A
C921        C922   1.385       .  A
C922        N928   1.342       .  A
C922        C923   1.403       .  A
C923        C924   1.402       .  A
C923        H932   1.082       .  S
C924        C927   1.378       .  A
N925        C926   1.355       .  A
N925        H935   1.045       .  S
C926        C927   1.395       .  A
C927        H933   1.082       .  S
N928        C929   1.354       .  A
N928        H936   1.045       .  S
C929        C930   1.393       .  A
C930        H934   1.083       .  S
C937       N1273   1.341       .  A
C937        C942   1.385       .  A
C937        C938   1.400       .  A
C938        C939   1.399       .  A
C938       H1279   1.082       .  S
C939        C948   1.374       .  A
C939        C940   1.385       .  A
C940        N946   1.342       .  A
C940        C941   1.403       .  A
C941        C942   1.402       .  A
C941        H950   1.082       .  S
C942        C945   1.376       .  A
N943       C1267   1.341       .  A
N943       C1274   1.354       .  A
N943        H953   1.043       .  S
C944       N1273   1.354       .  A
C944        C991   1.465       .  S
C944        C945   1.395       .  A
C945        H951   1.083       .  S
N946        C947   1.355       .  A
N946        H954   1.045       .  S
C947        C948   1.392       .  A
C948        H952   1.082       .  S
H949       C1268   1.082       .  S
C955        N961   1.342       .  A
C955        C960   1.385       .  A
C955        C956   1.402       .  A
C956        C957   1.401       .  A
C956       H1297   1.082       .  S
C957       C1296   1.377       .  A
C957        C958   1.385       .  A
C958        N964   1.340       .  A
C958        C959   1.400       .  A
C959        C960   1.399       .  A
C959        H968   1.083       .  S
C960        C963   1.375       .  A
N961        C962   1.354       .  A
N961        H971   1.044       .  S
C962        C963   1.392       .  A
C963        H969   1.083       .  S
N964        C965   1.354       .  A
N964        H972   1.045       .  S
C965        C995   1.464       .  S
C965       C1296   1.393       .  A
C966       C1287   1.377       .  A
C966       C1295   1.393       .  A
C966        H970   1.082   1_556  S
H967       C1286   1.082       .  S
C973       N1309   1.344       .  A
C973        C978   1.385       .  A
C973       C1304   1.404       .  A
C974       C1303   1.404       .  A
C974       C1305   1.403       .  A
C974        H985   1.082       .  S
C975       C1304   1.403       .  A
C975        C984   1.378       .  A
C975        C976   1.385       .  A
C976        N982   1.343       .  A
C976        C977   1.402       .  A
C977        C978   1.402       .  A
C977        H986   1.082       .  S
C978        C981   1.376       .  A
N979       C1303   1.344       .  A
N979       C1310   1.355       .  A
N979        H989   1.045       .  S
C980       N1309   1.355       .  A
C980        C993   1.470       .  S
C980        C981   1.394       .  A
C981        H987   1.083       .  S
N982        C983   1.354       .  A
N982        H990   1.045       .  S
C983        C984   1.394       .  A
C984        H988   1.082       .  S
C991        N992   1.357       .  A
C991        N996   1.355       .  A
N992        C993   1.358       .  A
C993        N994   1.358       .  A
N994        C995   1.359       .  A
C995        N996   1.355       .  A
C997        N998   1.355       .  A
C997       N1002   1.357       .  A
C997       C1220   1.466       .  S
N998        C999   1.355       .  A
C999       N1000   1.358       .  A
C999       C1238   1.465       .  S
N1000      C1001   1.359       .  A
C1001      N1002   1.358       .  A
C1001      C1256   1.469       .  S
C1003      N1004   1.355       .  A
C1003      N1008   1.356       .  A
C1003      C1205   1.465       .  S
N1004      C1005   1.356       .  A
C1005      N1006   1.359       .  A
C1005      C1166   1.466       .  S
N1006      C1007   1.359       .  A
C1007      N1008   1.357       .  A
C1007      C1184   1.467       .  S
C1009      N1010   1.358       .  A
C1009      N1014   1.356       .  A
C1009      C1148   1.466       .  S
N1010      C1011   1.358       .  A
C1011      N1012   1.358       .  A
C1011      C1115   1.466       .  S
N1012      C1013   1.357       .  A
C1013      N1014   1.355       .  A
C1013      C1130   1.466       .  S
N1015      N1016   1.320       .  A
N1015      N1021   1.316       .  A
N1015     Mn1044   2.201       .  S
N1016      C1023   1.352       .  A
N1017      N1019   1.315       .  A
N1017      N1018   1.320       .  A
N1017     Mn1033   2.200       .  S
N1018      C1024   1.352       .  A
N1019      N1020   1.319       .  A
N1019     Mn1044   2.193       .  S
N1020      C1024   1.350       .  A
N1021      N1022   1.321       .  A
N1021     Mn1033   2.203       .  S
N1022      C1023   1.353       .  A
C1023      C1313   1.467       .  S
C1024      C1169   1.462       .  S
N1025      N1691   1.316   1_565  A
N1025      N1026   1.320       .  A
N1025     Mn1055   2.194       .  S
N1026      C1034   1.350       .  A
N1027      N1028   1.319       .  A
N1027      N1029   1.315       .  A
N1028      C1035   1.351       .  A
N1029      N1030   1.319       .  A
N1029     Mn2375   2.194   1_455  S
N1030      C1035   1.351       .  A
N1031      N1685   1.316   1_455  A
N1031      N1032   1.321       .  A
N1031     Mn1033   2.206       .  S
N1032      C1694   1.353       .  A
Mn1033    Cl1717   2.546   1_455  S
C1034      N1692   1.353   1_565  A
C1034      C1091   1.463   1_565  S
C1035      C1202   1.463       .  S
N1036      N1037   1.319       .  A
N1036      N1042   1.314       .  A
N1036     Mn2364   2.190       .  S
N1037      C1045   1.350       .  A
N1038      N1700   1.316   1_565  A
N1038      N1039   1.320       .  A
N1038     Mn1056   2.201       .  S
N1040      N1698   1.316   1_455  A
N1040      N1041   1.320       .  A
N1040     Mn1044   2.203       .  S
N1041      C1376   1.352   1_456  A
N1042      N1043   1.319       .  A
N1043      C1045   1.352       .  A
Mn1044     N2356   2.190   1_455  S
Mn1044    Cl1717   2.541   1_455  S
C1045      C1277   1.463       .  S
C1046      N1371   1.352       .  A
C1046      C1079   1.463   1_545  S
N1047      N1048   1.318       .  A
N1047      N1053   1.315       .  A
N1047     Mn1055   2.189       .  S
N1048      C1058   1.350       .  A
N1049      N1050   1.320       .  A
N1049      N1051   1.316       .  A
N1049     Mn1056   2.199       .  S
N1050      C1059   1.352       .  A
N1051      N1052   1.319       .  A
N1051     Mn1055   2.196       .  S
N1052      C1059   1.350       .  A
N1053      N1054   1.320       .  A
N1053     Mn1056   2.200       .  S
N1054      C1058   1.351       .  A
Mn1055     N2349   2.194       .  S
Mn1055    Cl1057   2.542       .  S
Mn1056    Cl1057   2.546       .  S
Cl1057    Mn1693   2.546   1_565  S
Cl1057    Mn1704   2.541   1_565  S
C1058      C1292   1.460       .  S
C1059      C1187   1.462       .  S
N1060      N1061   1.321       .  A
N1060      N1066   1.315       .  A
N1060     Mn1089   2.206       .  S
N1061      C1068   1.352       .  A
N1062      N1064   1.316       .  A
N1062      N1063   1.321       .  A
N1062     Mn1078   2.206       .  S
N1063      C1069   1.353       .  A
N1064      N1065   1.319       .  A
N1064     Mn1089   2.194       .  S
N1065      C1069   1.351       .  A
N1066      N1067   1.319       .  A
N1066     Mn1078   2.193       .  S
N1067      C1068   1.351       .  A
C1068      C1259   1.464       .  S
C1069      C1112   1.465       .  S
N1070      N1736   1.316   1_565  A
N1070      N1071   1.321       .  A
N1070     Mn1100   2.203       .  S
N1071      C1079   1.352       .  A
N1072      N1073   1.321       .  A
N1072      N1074   1.314       .  A
N1073      C1080   1.352       .  A
N1074      N1075   1.318       .  A
N1074     Mn2420   2.189   1_455  S
N1075      C1080   1.350       .  A
N1076      N1730   1.316   1_455  A
N1076      N1077   1.320       .  A
N1076     Mn1078   2.200       .  S
N1077      C1739   1.351       .  A
Mn1078    Cl1762   2.547   1_455  S
C1079      N1737   1.351   1_565  A
C1080      C1151   1.463       .  S
N1081      N1082   1.320       .  A
N1081      N1087   1.315       .  A
N1081     Mn2409   2.202       .  S
N1082      C1090   1.352       .  A
N1083      N1745   1.316   1_565  A
N1083      N1084   1.321       .  A
N1083     Mn1101   2.204       .  S
N1084      C1091   1.352   1_565  A
N1085      N1743   1.316   1_455  A
N1085      N1086   1.320       .  A
N1085     Mn1089   2.197       .  S
N1086      C1751   1.351   1_455  A
N1087      N1088   1.320       .  A
N1088      C1090   1.351       .  A
Mn1089     N2401   2.202   1_455  S
Mn1089    Cl1762   2.541   1_455  S
C1090      C1223   1.465       .  S
C1091      N1746   1.351       .  A
N1092      N1093   1.319       .  A
N1092      N1098   1.315       .  A
N1092     Mn1100   2.194       .  S
N1093      C1103   1.351       .  A
N1094      N1095   1.320       .  A
N1094      N1096   1.316       .  A
N1094     Mn1101   2.202       .  S
N1095      C1104   1.352       .  A
N1096      N1097   1.320       .  A
N1096     Mn1100   2.198       .  S
N1097      C1104   1.351       .  A
N1098      N1099   1.320       .  A
N1098     Mn1101   2.198       .  S
N1099      C1103   1.351       .  A
Mn1100     N2394   2.189       .  S
Mn1100    Cl1102   2.541       .  S
Mn1101    Cl1102   2.547       .  S
Cl1102    Mn1738   2.547   1_565  S
Cl1102    Mn1749   2.541   1_565  S
C1103      C1241   1.462       .  S
C1104      C1133   1.463       .  S
C1105      N1111   1.343       .  A
C1105      C1110   1.385       .  A
C1105      C1106   1.402       .  A
C1106      C1107   1.402       .  A
C1106      H1117   1.082       .  S
C1107      C1116   1.377       .  A
C1107      C1108   1.385       .  A
C1108      N1114   1.342       .  A
C1108      C1109   1.402       .  A
C1109      C1110   1.402       .  A
C1109      H1118   1.082       .  S
C1110      C1113   1.377       .  A
N1111      C1112   1.354       .  A
N1111      H1121   1.045       .  S
C1112      C1113   1.393       .  A
C1113      H1119   1.083       .  S
N1114      C1115   1.355       .  A
N1114      H1122   1.045       .  S
C1115      C1116   1.394       .  A
C1116      H1120   1.082       .  S
C1123      N1129   1.343       .  A
C1123      C1128   1.385       .  A
C1123      C1124   1.402       .  A
C1124      C1125   1.402       .  A
C1124      H1135   1.082       .  S
C1125      C1134   1.376       .  A
C1125      C1126   1.385       .  A
C1126      N1132   1.343       .  A
C1126      C1127   1.402       .  A
C1127      C1128   1.401       .  A
C1127      H1136   1.082       .  S
C1128      C1131   1.375       .  A
N1129      C1130   1.354       .  A
N1129      H1139   1.045       .  S
C1130      C1131   1.394       .  A
C1131      H1137   1.083       .  S
N1132      C1133   1.354       .  A
N1132      H1140   1.044       .  S
C1133      C1134   1.393       .  A
C1134      H1138   1.082       .  S
C1141      N1147   1.342       .  A
C1141      C1146   1.385       .  A
C1141      C1142   1.400       .  A
C1142      C1143   1.400       .  A
C1142      H1153   1.082       .  S
C1143      C1152   1.373       .  A
C1143      C1144   1.385       .  A
C1144      N1150   1.343       .  A
C1144      C1145   1.401       .  A
C1145      C1146   1.401       .  A
C1145      H1154   1.082       .  S
C1146      C1149   1.374       .  A
N1147      C1148   1.354       .  A
N1147      H1157   1.044       .  S
C1148      C1149   1.394       .  A
C1149      H1155   1.083       .  S
N1150      C1151   1.354       .  A
N1150      H1158   1.045       .  S
C1151      C1152   1.393       .  A
C1152      H1156   1.082       .  S
C1159      N1165   1.341       .  A
C1159      C1164   1.385       .  A
C1159      C1160   1.402       .  A
C1160      C1161   1.400       .  A
C1160      H1171   1.083       .  S
C1161      C1170   1.376       .  A
C1161      C1162   1.386       .  A
C1162      N1168   1.342       .  A
C1162      C1163   1.402       .  A
C1163      C1164   1.401       .  A
C1163      H1172   1.082       .  S
C1164      C1167   1.378       .  A
N1165      C1166   1.355       .  A
N1165      H1175   1.045       .  S
C1166      C1167   1.393       .  A
C1167      H1173   1.082       .  S
N1168      C1169   1.353       .  A
N1168      H1176   1.045       .  S
C1169      C1170   1.393       .  A
C1170      H1174   1.083       .  S
C1177      N1183   1.344       .  A
C1177      C1182   1.385       .  A
C1177      C1178   1.403       .  A
C1178      C1179   1.403       .  A
C1178      H1189   1.082       .  S
C1179      C1188   1.377       .  A
C1179      C1180   1.386       .  A
C1180      N1186   1.342       .  A
C1180      C1181   1.400       .  A
C1181      C1182   1.400       .  A
C1181      H1190   1.082       .  S
C1182      C1185   1.374       .  A
N1183      C1184   1.355       .  A
N1183      H1193   1.045       .  S
C1184      C1185   1.393       .  A
C1185      H1191   1.083       .  S
N1186      C1187   1.353       .  A
N1186      H1194   1.045       .  S
C1187      C1188   1.393       .  A
C1188      H1192   1.082       .  S
C1195      N1201   1.341       .  A
C1195      C1200   1.385       .  A
C1195      C1196   1.401       .  A
C1196      C1197   1.400       .  A
C1196      H1207   1.082       .  S
C1197      C1206   1.375       .  A
C1197      C1198   1.385       .  A
C1198      N1204   1.341       .  A
C1198      C1199   1.401       .  A
C1199      C1200   1.400       .  A
C1199      H1208   1.082       .  S
C1200      C1203   1.375       .  A
N1201      C1202   1.354       .  A
N1201      H1211   1.045       .  S
C1202      C1203   1.393       .  A
C1203      H1209   1.082       .  S
N1204      C1205   1.354       .  A
N1204      H1212   1.046       .  S
C1205      C1206   1.394       .  A
C1206      H1210   1.082       .  S
C1213      N1219   1.342       .  A
C1213      C1218   1.385       .  A
C1213      C1214   1.402       .  A
C1214      C1215   1.401       .  A
C1214      H1225   1.082       .  S
C1215      C1224   1.376       .  A
C1215      C1216   1.385       .  A
C1216      N1222   1.342       .  A
C1216      C1217   1.401       .  A
C1217      C1218   1.400       .  A
C1217      H1226   1.082       .  S
C1218      C1221   1.374       .  A
N1219      C1220   1.354       .  A
N1219      H1229   1.046       .  S
C1220      C1221   1.394       .  A
C1221      H1227   1.083       .  S
N1222      C1223   1.354       .  A
N1222      H1230   1.045       .  S
C1223      C1224   1.394       .  A
C1224      H1228   1.082       .  S
C1231      N1237   1.341       .  A
C1231      C1236   1.385       .  A
C1231      C1232   1.401       .  A
C1232      C1233   1.400       .  A
C1232      H1243   1.083       .  S
C1233      C1242   1.376       .  A
C1233      C1234   1.386       .  A
C1234      N1240   1.342       .  A
C1234      C1235   1.402       .  A
C1235      C1236   1.401       .  A
C1235      H1244   1.082       .  S
C1236      C1239   1.378       .  A
N1237      C1238   1.354       .  A
N1237      H1247   1.045       .  S
C1238      C1239   1.393       .  A
C1239      H1245   1.082       .  S
N1240      C1241   1.354       .  A
N1240      H1248   1.045       .  S
C1241      C1242   1.392       .  A
C1242      H1246   1.083       .  S
C1249      N1255   1.342       .  A
C1249      C1254   1.385       .  A
C1249      C1250   1.403       .  A
C1250      C1251   1.402       .  A
C1250      H1261   1.082       .  S
C1251      C1260   1.378       .  A
C1251      C1252   1.385       .  A
C1252      N1258   1.342       .  A
C1252      C1253   1.403       .  A
C1253      C1254   1.402       .  A
C1253      H1262   1.082       .  S
C1254      C1257   1.378       .  A
N1255      C1256   1.355       .  A
N1255      H1265   1.045       .  S
C1256      C1257   1.395       .  A
C1257      H1263   1.082       .  S
N1258      C1259   1.354       .  A
N1258      H1266   1.045       .  S
C1259      C1260   1.393       .  A
C1260      H1264   1.083       .  S
C1267      C1272   1.385       .  A
C1267      C1268   1.400       .  A
C1268      C1269   1.399       .  A
C1269      C1278   1.374       .  A
C1269      C1270   1.385       .  A
C1270      N1276   1.342       .  A
C1270      C1271   1.403       .  A
C1271      C1272   1.402       .  A
C1271      H1280   1.082       .  S
C1272      C1275   1.376       .  A
N1273      H1283   1.043       .  S
C1274      C1275   1.395       .  A
C1275      H1281   1.083       .  S
N1276      C1277   1.355       .  A
N1276      H1284   1.045       .  S
C1277      C1278   1.392       .  A
C1278      H1282   1.082       .  S
C1285      N1291   1.342       .  A
C1285      C1290   1.385       .  A
C1285      C1286   1.402       .  A
C1286      C1287   1.401       .  A
C1287      C1288   1.385       .  A
C1288      N1294   1.340       .  A
C1288      C1289   1.400       .  A
C1289      C1290   1.399       .  A
C1289      H1298   1.083       .  S
C1290      C1293   1.375       .  A
N1291      C1292   1.354       .  A
N1291      H1301   1.044       .  S
C1292      C1293   1.392       .  A
C1293      H1299   1.083       .  S
N1294      C1295   1.354       .  A
N1294      H1302   1.045       .  S
C1296      H1300   1.082       .  S
C1303      C1308   1.385       .  A
C1304      H1315   1.082       .  S
C1305      C1314   1.378       .  A
C1305      C1306   1.385       .  A
C1306      N1312   1.343       .  A
C1306      C1307   1.402       .  A
C1307      C1308   1.402       .  A
C1307      H1316   1.082       .  S
C1308      C1311   1.376       .  A
N1309      H1319   1.045       .  S
C1310      C1311   1.394       .  A
C1311      H1317   1.083       .  S
N1312      C1313   1.354       .  A
N1312      H1320   1.045       .  S
C1313      C1314   1.394       .  A
C1314      H1318   1.082       .  S
C1321      N1322   1.357       .  A
C1321      N1326   1.355       .  A
C1321      C1934   1.465       .  S
N1322      C1323   1.358       .  A
C1323      N1324   1.358       .  A
C1323      C1970   1.470       .  S
N1324      C1325   1.359       .  A
C1325      N1326   1.355       .  A
C1325      C1955   1.464       .  S
C1327      N1328   1.355       .  A
C1327      N1332   1.357       .  A
C1327      C1550   1.466       .  S
N1328      C1329   1.355       .  A
C1329      N1330   1.358       .  A
C1329      C1568   1.465       .  S
N1330      C1331   1.359       .  A
C1331      N1332   1.358       .  A
C1331      C1586   1.469       .  S
C1333      N1334   1.355       .  A
C1333      N1338   1.356       .  A
C1333      C1535   1.465       .  S
N1334      C1335   1.356       .  A
C1335      N1336   1.359       .  A
C1335      C1496   1.466       .  S
N1336      C1337   1.359       .  A
C1337      N1338   1.357       .  A
C1337      C1514   1.467       .  S
C1339      N1340   1.358       .  A
C1339      N1344   1.356       .  A
C1339      C1478   1.466       .  S
N1340      C1341   1.358       .  A
C1341      N1342   1.358       .  A
C1341      C1445   1.466       .  S
N1342      C1343   1.357       .  A
C1343      N1344   1.355       .  A
C1343      C1460   1.466       .  S
N1345      N1346   1.320       .  A
N1345      N1351   1.316       .  A
N1345     Mn1374   2.201       .  S
N1346      C1353   1.352       .  A
N1347      N1349   1.315       .  A
N1347      N1348   1.320       .  A
N1347     Mn1363   2.200       .  S
N1348      C1354   1.352       .  A
N1349      N1350   1.319       .  A
N1349     Mn1374   2.193       .  S
N1350      C1354   1.350       .  A
N1351      N1352   1.321       .  A
N1351     Mn1363   2.203       .  S
N1352      C1353   1.353       .  A
C1353      C1643   1.467       .  S
C1354      C1499   1.462       .  S
N1355      N1356   1.320       .  A
N1355     Mn1385   2.194       .  S
N1356      C1364   1.350   1_655  A
N1357      N1358   1.319       .  A
N1357      N1359   1.315       .  A
N1357     Mn2023   2.195       .  S
N1358      C1365   1.351       .  A
N1359      N1360   1.319       .  A
N1360      C1365   1.351       .  A
N1361      N1362   1.321       .  A
N1361     Mn1363   2.206       .  S
Mn1363     N2017   2.195   1_545  S
C1364      C1421   1.463   1_455  S
C1365      C1532   1.463       .  S
N1366      N1367   1.319       .  A
N1366      N1372   1.314       .  A
N1367      C1375   1.350       .  A
N1368      N1369   1.320       .  A
N1368     Mn1386   2.201       .  S
N1369      C1706   1.352       .  A
N1370      N1371   1.320       .  A
N1370     Mn1374   2.203       .  S
N1372      N1373   1.319       .  A
N1372     Mn2046   2.197   1_545  S
N1373      C1375   1.352       .  A
C1375      C1607   1.463       .  S
C1376      N1699   1.352   1_554  A
C1376      C1409   1.463   1_655  S
N1377      N1378   1.318       .  A
N1377      N1383   1.315       .  A
N1377     Mn1385   2.189       .  S
N1378      C1388   1.350       .  A
N1379      N1380   1.320       .  A
N1379      N1381   1.316       .  A
N1379     Mn1386   2.199       .  S
N1380      C1389   1.352       .  A
N1381      N1382   1.319       .  A
N1381     Mn1385   2.196       .  S
N1382      C1389   1.350       .  A
N1383      N1384   1.320       .  A
N1383     Mn1386   2.200       .  S
N1384      C1388   1.351       .  A
Mn1385    Cl1387   2.542       .  S
Mn1386     N2032   2.197       .  S
Mn1386    Cl1387   2.546       .  S
C1388      C1622   1.460       .  S
C1389      C1517   1.462       .  S
N1390      N1391   1.321       .  A
N1390      N1396   1.315       .  A
N1390     Mn1419   2.206       .  S
N1391      C1398   1.352       .  A
N1392      N1394   1.316       .  A
N1392      N1393   1.321       .  A
N1392     Mn1408   2.206       .  S
N1393      C1399   1.353       .  A
N1394      N1395   1.319       .  A
N1394     Mn1419   2.194       .  S
N1395      C1399   1.351       .  A
N1396      N1397   1.319       .  A
N1396     Mn1408   2.193       .  S
N1397      C1398   1.351       .  A
C1398      C1589   1.464       .  S
C1399      C1442   1.465       .  S
N1400      N1401   1.321       .  A
N1400     Mn1430   2.203       .  S
N1401      C1409   1.352   1_655  A
N1402      N1403   1.321       .  A
N1402      N1404   1.314       .  A
N1402     Mn2068   2.198       .  S
N1403      C1410   1.352       .  A
N1404      N1405   1.318       .  A
N1405      C1410   1.350       .  A
N1406      N1407   1.320       .  A
N1406     Mn1408   2.200       .  S
Mn1408     N2062   2.198   1_545  S
C1410      C1481   1.463       .  S
N1411      N1412   1.320       .  A
N1411      N1417   1.315       .  A
N1412      C1420   1.352       .  A
N1413      N1414   1.321       .  A
N1413     Mn1431   2.204       .  S
N1414      C1421   1.352       .  A
N1415      N1416   1.320       .  A
N1415     Mn1419   2.197       .  S
N1417      N1418   1.320       .  A
N1417     Mn2091   2.194   1_545  S
N1418      C1420   1.351       .  A
C1420      C1553   1.465       .  S
N1422      N1423   1.319       .  A
N1422      N1428   1.315       .  A
N1422     Mn1430   2.194       .  S
N1423      C1433   1.351       .  A
N1424      N1425   1.320       .  A
N1424      N1426   1.316       .  A
N1424     Mn1431   2.202       .  S
N1425      C1434   1.352       .  A
N1426      N1427   1.320       .  A
N1426     Mn1430   2.198       .  S
N1427      C1434   1.351       .  A
N1428      N1429   1.320       .  A
N1428     Mn1431   2.198       .  S
N1429      C1433   1.351       .  A
Mn1430    Cl1432   2.541       .  S
Mn1431     N2077   2.194       .  S
Mn1431    Cl1432   2.547       .  S
C1433      C1571   1.462       .  S
C1434      C1463   1.463       .  S
C1435      N1441   1.343       .  A
C1435      C1440   1.385       .  A
C1435      C1436   1.402       .  A
C1436      C1437   1.402       .  A
C1436      H1447   1.082       .  S
C1437      C1446   1.377       .  A
C1437      C1438   1.385       .  A
C1438      N1444   1.342       .  A
C1438      C1439   1.402       .  A
C1439      C1440   1.402       .  A
C1439      H1448   1.082       .  S
C1440      C1443   1.377       .  A
N1441      C1442   1.354       .  A
N1441      H1451   1.045       .  S
C1442      C1443   1.393       .  A
C1443      H1449   1.083       .  S
N1444      C1445   1.355       .  A
N1444      H1452   1.045       .  S
C1445      C1446   1.394       .  A
C1446      H1450   1.082       .  S
C1453      N1459   1.343       .  A
C1453      C1458   1.385       .  A
C1453      C1454   1.402       .  A
C1454      C1455   1.402       .  A
C1454      H1465   1.082       .  S
C1455      C1464   1.376       .  A
C1455      C1456   1.385       .  A
C1456      N1462   1.343       .  A
C1456      C1457   1.402       .  A
C1457      C1458   1.401       .  A
C1457      H1466   1.082       .  S
C1458      C1461   1.375       .  A
N1459      C1460   1.354       .  A
N1459      H1469   1.045       .  S
C1460      C1461   1.394       .  A
C1461      H1467   1.083       .  S
N1462      C1463   1.354       .  A
N1462      H1470   1.044       .  S
C1463      C1464   1.393       .  A
C1464      H1468   1.082       .  S
C1471      N1477   1.342       .  A
C1471      C1476   1.385       .  A
C1471      C1472   1.400       .  A
C1472      C1473   1.400       .  A
C1472      H1483   1.082       .  S
C1473      C1482   1.373       .  A
C1473      C1474   1.385       .  A
C1474      N1480   1.343       .  A
C1474      C1475   1.401       .  A
C1475      C1476   1.401       .  A
C1475      H1484   1.082       .  S
C1476      C1479   1.374       .  A
N1477      C1478   1.354       .  A
N1477      H1487   1.044       .  S
C1478      C1479   1.394       .  A
C1479      H1485   1.083       .  S
N1480      C1481   1.354       .  A
N1480      H1488   1.045       .  S
C1481      C1482   1.393       .  A
C1482      H1486   1.082       .  S
C1489      N1495   1.341       .  A
C1489      C1494   1.385       .  A
C1489      C1490   1.402       .  A
C1490      C1491   1.400       .  A
C1490      H1501   1.083       .  S
C1491      C1500   1.376       .  A
C1491      C1492   1.386       .  A
C1492      N1498   1.342       .  A
C1492      C1493   1.402       .  A
C1493      C1494   1.401       .  A
C1493      H1502   1.082       .  S
C1494      C1497   1.378       .  A
N1495      C1496   1.355       .  A
N1495      H1505   1.045       .  S
C1496      C1497   1.393       .  A
C1497      H1503   1.082       .  S
N1498      C1499   1.353       .  A
N1498      H1506   1.045       .  S
C1499      C1500   1.393       .  A
C1500      H1504   1.083       .  S
C1507      N1513   1.344       .  A
C1507      C1512   1.385       .  A
C1507      C1508   1.403       .  A
C1508      C1509   1.403       .  A
C1508      H1519   1.082       .  S
C1509      C1518   1.377       .  A
C1509      C1510   1.386       .  A
C1510      N1516   1.342       .  A
C1510      C1511   1.400       .  A
C1511      C1512   1.400       .  A
C1511      H1520   1.082       .  S
C1512      C1515   1.374       .  A
N1513      C1514   1.355       .  A
N1513      H1523   1.045       .  S
C1514      C1515   1.393       .  A
C1515      H1521   1.083       .  S
N1516      C1517   1.353       .  A
N1516      H1524   1.045       .  S
C1517      C1518   1.393       .  A
C1518      H1522   1.082       .  S
C1525      N1531   1.341       .  A
C1525      C1530   1.385       .  A
C1525      C1526   1.401       .  A
C1526      C1527   1.400       .  A
C1526      H1537   1.082       .  S
C1527      C1536   1.375       .  A
C1527      C1528   1.385       .  A
C1528      N1534   1.341       .  A
C1528      C1529   1.401       .  A
C1529      C1530   1.400       .  A
C1529      H1538   1.082       .  S
C1530      C1533   1.375       .  A
N1531      C1532   1.354       .  A
N1531      H1541   1.045       .  S
C1532      C1533   1.393       .  A
C1533      H1539   1.082       .  S
N1534      C1535   1.354       .  A
N1534      H1542   1.046       .  S
C1535      C1536   1.394       .  A
C1536      H1540   1.082       .  S
C1543      N1549   1.342       .  A
C1543      C1548   1.385       .  A
C1543      C1544   1.402       .  A
C1544      C1545   1.401       .  A
C1544      H1555   1.082       .  S
C1545      C1554   1.376       .  A
C1545      C1546   1.385       .  A
C1546      N1552   1.342       .  A
C1546      C1547   1.401       .  A
C1547      C1548   1.400       .  A
C1547      H1556   1.082       .  S
C1548      C1551   1.374       .  A
N1549      C1550   1.354       .  A
N1549      H1559   1.046       .  S
C1550      C1551   1.394       .  A
C1551      H1557   1.083       .  S
N1552      C1553   1.354       .  A
N1552      H1560   1.045       .  S
C1553      C1554   1.394       .  A
C1554      H1558   1.082       .  S
C1561      N1567   1.341       .  A
C1561      C1566   1.385       .  A
C1561      C1562   1.401       .  A
C1562      C1563   1.400       .  A
C1562      H1573   1.083       .  S
C1563      C1572   1.376       .  A
C1563      C1564   1.386       .  A
C1564      N1570   1.342       .  A
C1564      C1565   1.402       .  A
C1565      C1566   1.401       .  A
C1565      H1574   1.082       .  S
C1566      C1569   1.378       .  A
N1567      C1568   1.354       .  A
N1567      H1577   1.045       .  S
C1568      C1569   1.393       .  A
C1569      H1575   1.082       .  S
N1570      C1571   1.354       .  A
N1570      H1578   1.045       .  S
C1571      C1572   1.392       .  A
C1572      H1576   1.083       .  S
C1579      N1585   1.342       .  A
C1579      C1584   1.385       .  A
C1579      C1580   1.403       .  A
C1580      C1581   1.402       .  A
C1580      H1591   1.082       .  S
C1581      C1590   1.378       .  A
C1581      C1582   1.385       .  A
C1582      N1588   1.342       .  A
C1582      C1583   1.403       .  A
C1583      C1584   1.402       .  A
C1583      H1592   1.082       .  S
C1584      C1587   1.378       .  A
N1585      C1586   1.355       .  A
N1585      H1595   1.045       .  S
C1586      C1587   1.395       .  A
C1587      H1593   1.082       .  S
N1588      C1589   1.354       .  A
N1588      H1596   1.045       .  S
C1589      C1590   1.393       .  A
C1590      H1594   1.083       .  S
C1597      N1933   1.341       .  A
C1597      C1602   1.385       .  A
C1597      C1598   1.400       .  A
C1598      C1599   1.399       .  A
C1598      H1939   1.082       .  S
C1599      C1608   1.374       .  A
C1599      C1600   1.385       .  A
C1600      N1606   1.342       .  A
C1600      C1601   1.403       .  A
C1601      C1602   1.402       .  A
C1601      H1610   1.082       .  S
C1602      C1605   1.376       .  A
N1603      C1927   1.341       .  A
N1603      C1934   1.354       .  A
N1603      H1613   1.043       .  S
C1604      N1933   1.354       .  A
C1604      C1651   1.465       .  S
C1604      C1605   1.395       .  A
C1605      H1611   1.083       .  S
N1606      C1607   1.355       .  A
N1606      H1614   1.045       .  S
C1607      C1608   1.392       .  A
C1608      H1612   1.082       .  S
H1609      C1928   1.082       .  S
C1615      N1621   1.342       .  A
C1615      C1620   1.386       .  A
C1615      C1616   1.402       .  A
C1616      C1617   1.401       .  A
C1616      H1957   1.082       .  S
C1617      C1956   1.377       .  A
C1617      C1618   1.385       .  A
C1618      N1624   1.340       .  A
C1618      C1619   1.400       .  A
C1619      C1620   1.399       .  A
C1619      H1628   1.083       .  S
C1620      C1623   1.375       .  A
N1621      C1622   1.354       .  A
N1621      H1631   1.044       .  S
C1622      C1623   1.392       .  A
C1623      H1629   1.083       .  S
N1624      C1625   1.354       .  A
N1624      H1632   1.045       .  S
C1625      C1655   1.464       .  S
C1625      C1956   1.393       .  A
C1626      C1947   1.377       .  A
C1626      C1955   1.393       .  A
C1626      H1630   1.082   1_556  S
H1627      C1946   1.082       .  S
C1633      N1969   1.344       .  A
C1633      C1638   1.385       .  A
C1633      C1964   1.404       .  A
C1634      C1963   1.404       .  A
C1634      C1965   1.403       .  A
C1634      H1645   1.082       .  S
C1635      C1964   1.403       .  A
C1635      C1644   1.378       .  A
C1635      C1636   1.385       .  A
C1636      N1642   1.343       .  A
C1636      C1637   1.402       .  A
C1637      C1638   1.402       .  A
C1637      H1646   1.082       .  S
C1638      C1641   1.376       .  A
N1639      C1963   1.344       .  A
N1639      C1970   1.355       .  A
N1639      H1649   1.045       .  S
C1640      N1969   1.355       .  A
C1640      C1653   1.470       .  S
C1640      C1641   1.394       .  A
C1641      H1647   1.083       .  S
N1642      C1643   1.354       .  A
N1642      H1650   1.045       .  S
C1643      C1644   1.394       .  A
C1644      H1648   1.082       .  S
C1651      N1652   1.357       .  A
C1651      N1656   1.355       .  A
N1652      C1653   1.358       .  A
C1653      N1654   1.358       .  A
N1654      C1655   1.359       .  A
C1655      N1656   1.355       .  A
C1657      N1658   1.355       .  A
C1657      N1662   1.357       .  A
C1657      C1880   1.466       .  S
N1658      C1659   1.355       .  A
C1659      N1660   1.358       .  A
C1659      C1898   1.465       .  S
N1660      C1661   1.359       .  A
C1661      N1662   1.358       .  A
C1661      C1916   1.469       .  S
C1663      N1664   1.355       .  A
C1663      N1668   1.356       .  A
C1663      C1865   1.465       .  S
N1664      C1665   1.356       .  A
C1665      N1666   1.359       .  A
C1665      C1826   1.466       .  S
N1666      C1667   1.359       .  A
C1667      N1668   1.357       .  A
C1667      C1844   1.467       .  S
C1669      N1670   1.358       .  A
C1669      N1674   1.356       .  A
C1669      C1808   1.466       .  S
N1670      C1671   1.358       .  A
C1671      N1672   1.358       .  A
C1671      C1775   1.466       .  S
N1672      C1673   1.357       .  A
C1673      N1674   1.355       .  A
C1673      C1790   1.466       .  S
N1675      N1676   1.320       .  A
N1675      N1681   1.316       .  A
N1675     Mn1704   2.201       .  S
N1676      C1683   1.352       .  A
N1677      N1679   1.315       .  A
N1677      N1678   1.320       .  A
N1677     Mn1693   2.200       .  S
N1678      C1684   1.352       .  A
N1679      N1680   1.319       .  A
N1679     Mn1704   2.193       .  S
N1680      C1684   1.350       .  A
N1681      N1682   1.321       .  A
N1681     Mn1693   2.203       .  S
N1682      C1683   1.353       .  A
C1683      C1973   1.467       .  S
C1684      C1829   1.462       .  S
N1685      N1686   1.320       .  A
N1685     Mn1715   2.194       .  S
N1686      C1694   1.350   1_655  A
N1687      N1688   1.319       .  A
N1687      N1689   1.315       .  A
N1687     Mn2353   2.195       .  S
N1688      C1695   1.351       .  A
N1689      N1690   1.319       .  A
N1690      C1695   1.351       .  A
N1691      N1692   1.321       .  A
N1691     Mn1693   2.206       .  S
Mn1693     N2347   2.195   1_545  S
C1694      C1751   1.463   1_455  S
C1695      C1862   1.463       .  S
N1696      N1697   1.319       .  A
N1696      N1702   1.314       .  A
N1697      C1705   1.350       .  A
N1698      N1699   1.320       .  A
N1698     Mn1716   2.201       .  S
N1700      N1701   1.320       .  A
N1700     Mn1704   2.203       .  S
N1702      N1703   1.319       .  A
N1702     Mn2376   2.197   1_545  S
N1703      C1705   1.352       .  A
C1705      C1937   1.463       .  S
C1706      C1739   1.463   1_655  S
N1707      N1708   1.318       .  A
N1707      N1713   1.315       .  A
N1707     Mn1715   2.189       .  S
N1708      C1718   1.350       .  A
N1709      N1710   1.320       .  A
N1709      N1711   1.316       .  A
N1709     Mn1716   2.199       .  S
N1710      C1719   1.352       .  A
N1711      N1712   1.319       .  A
N1711     Mn1715   2.196       .  S
N1712      C1719   1.350       .  A
N1713      N1714   1.320       .  A
N1713     Mn1716   2.200       .  S
N1714      C1718   1.351       .  A
Mn1715    Cl1717   2.542       .  S
Mn1716     N2362   2.197       .  S
Mn1716    Cl1717   2.546       .  S
C1718      C1952   1.460       .  S
C1719      C1847   1.462       .  S
N1720      N1721   1.321       .  A
N1720      N1726   1.315       .  A
N1720     Mn1749   2.206       .  S
N1721      C1728   1.352       .  A
N1722      N1724   1.316       .  A
N1722      N1723   1.321       .  A
N1722     Mn1738   2.206       .  S
N1723      C1729   1.353       .  A
N1724      N1725   1.319       .  A
N1724     Mn1749   2.194       .  S
N1725      C1729   1.351       .  A
N1726      N1727   1.319       .  A
N1726     Mn1738   2.193       .  S
N1727      C1728   1.351       .  A
C1728      C1919   1.464       .  S
C1729      C1772   1.465       .  S
N1730      N1731   1.321       .  A
N1730     Mn1760   2.203       .  S
N1731      C1739   1.352   1_655  A
N1732      N1733   1.321       .  A
N1732      N1734   1.314       .  A
N1732     Mn2398   2.198       .  S
N1733      C1740   1.352       .  A
N1734      N1735   1.318       .  A
N1735      C1740   1.350       .  A
N1736      N1737   1.320       .  A
N1736     Mn1738   2.200       .  S
Mn1738     N2392   2.198   1_545  S
C1740      C1811   1.463       .  S
N1741      N1742   1.320       .  A
N1741      N1747   1.315       .  A
N1742      C1750   1.352       .  A
N1743      N1744   1.321       .  A
N1743     Mn1761   2.204       .  S
N1744      C1751   1.352       .  A
N1745      N1746   1.320       .  A
N1745     Mn1749   2.197       .  S
N1747      N1748   1.320       .  A
N1747     Mn2421   2.194   1_545  S
N1748      C1750   1.351       .  A
C1750      C1883   1.465       .  S
N1752      N1753   1.319       .  A
N1752      N1758   1.315       .  A
N1752     Mn1760   2.194       .  S
N1753      C1763   1.351       .  A
N1754      N1755   1.320       .  A
N1754      N1756   1.316       .  A
N1754     Mn1761   2.202       .  S
N1755      C1764   1.352       .  A
N1756      N1757   1.320       .  A
N1756     Mn1760   2.198       .  S
N1757      C1764   1.351       .  A
N1758      N1759   1.320       .  A
N1758     Mn1761   2.198       .  S
N1759      C1763   1.351       .  A
Mn1760    Cl1762   2.541       .  S
Mn1761     N2407   2.194       .  S
Mn1761    Cl1762   2.547       .  S
C1763      C1901   1.462       .  S
C1764      C1793   1.463       .  S
C1765      N1771   1.343       .  A
C1765      C1770   1.385       .  A
C1765      C1766   1.402       .  A
C1766      C1767   1.402       .  A
C1766      H1777   1.082       .  S
C1767      C1776   1.377       .  A
C1767      C1768   1.385       .  A
C1768      N1774   1.342       .  A
C1768      C1769   1.402       .  A
C1769      C1770   1.402       .  A
C1769      H1778   1.082       .  S
C1770      C1773   1.377       .  A
N1771      C1772   1.354       .  A
N1771      H1781   1.045       .  S
C1772      C1773   1.393       .  A
C1773      H1779   1.083       .  S
N1774      C1775   1.355       .  A
N1774      H1782   1.045       .  S
C1775      C1776   1.394       .  A
C1776      H1780   1.082       .  S
C1783      N1789   1.343       .  A
C1783      C1788   1.385       .  A
C1783      C1784   1.402       .  A
C1784      C1785   1.402       .  A
C1784      H1795   1.082       .  S
C1785      C1794   1.376       .  A
C1785      C1786   1.385       .  A
C1786      N1792   1.343       .  A
C1786      C1787   1.402       .  A
C1787      C1788   1.401       .  A
C1787      H1796   1.082       .  S
C1788      C1791   1.375       .  A
N1789      C1790   1.354       .  A
N1789      H1799   1.045       .  S
C1790      C1791   1.394       .  A
C1791      H1797   1.083       .  S
N1792      C1793   1.354       .  A
N1792      H1800   1.044       .  S
C1793      C1794   1.393       .  A
C1794      H1798   1.082       .  S
C1801      N1807   1.342       .  A
C1801      C1806   1.385       .  A
C1801      C1802   1.400       .  A
C1802      C1803   1.400       .  A
C1802      H1813   1.082       .  S
C1803      C1812   1.373       .  A
C1803      C1804   1.385       .  A
C1804      N1810   1.343       .  A
C1804      C1805   1.401       .  A
C1805      C1806   1.401       .  A
C1805      H1814   1.082       .  S
C1806      C1809   1.374       .  A
N1807      C1808   1.354       .  A
N1807      H1817   1.044       .  S
C1808      C1809   1.394       .  A
C1809      H1815   1.083       .  S
N1810      C1811   1.354       .  A
N1810      H1818   1.045       .  S
C1811      C1812   1.393       .  A
C1812      H1816   1.082       .  S
C1819      N1825   1.341       .  A
C1819      C1824   1.385       .  A
C1819      C1820   1.402       .  A
C1820      C1821   1.400       .  A
C1820      H1831   1.083       .  S
C1821      C1830   1.376       .  A
C1821      C1822   1.386       .  A
C1822      N1828   1.342       .  A
C1822      C1823   1.402       .  A
C1823      C1824   1.401       .  A
C1823      H1832   1.082       .  S
C1824      C1827   1.378       .  A
N1825      C1826   1.355       .  A
N1825      H1835   1.045       .  S
C1826      C1827   1.393       .  A
C1827      H1833   1.082       .  S
N1828      C1829   1.353       .  A
N1828      H1836   1.045       .  S
C1829      C1830   1.393       .  A
C1830      H1834   1.083       .  S
C1837      N1843   1.344       .  A
C1837      C1842   1.385       .  A
C1837      C1838   1.403       .  A
C1838      C1839   1.403       .  A
C1838      H1849   1.082       .  S
C1839      C1848   1.377       .  A
C1839      C1840   1.386       .  A
C1840      N1846   1.342       .  A
C1840      C1841   1.400       .  A
C1841      C1842   1.400       .  A
C1841      H1850   1.082       .  S
C1842      C1845   1.374       .  A
N1843      C1844   1.355       .  A
N1843      H1853   1.045       .  S
C1844      C1845   1.393       .  A
C1845      H1851   1.083       .  S
N1846      C1847   1.353       .  A
N1846      H1854   1.045       .  S
C1847      C1848   1.393       .  A
C1848      H1852   1.082       .  S
C1855      N1861   1.341       .  A
C1855      C1860   1.385       .  A
C1855      C1856   1.401       .  A
C1856      C1857   1.400       .  A
C1856      H1867   1.082       .  S
C1857      C1866   1.375       .  A
C1857      C1858   1.385       .  A
C1858      N1864   1.341       .  A
C1858      C1859   1.401       .  A
C1859      C1860   1.400       .  A
C1859      H1868   1.082       .  S
C1860      C1863   1.375       .  A
N1861      C1862   1.354       .  A
N1861      H1871   1.045       .  S
C1862      C1863   1.393       .  A
C1863      H1869   1.082       .  S
N1864      C1865   1.354       .  A
N1864      H1872   1.046       .  S
C1865      C1866   1.394       .  A
C1866      H1870   1.082       .  S
C1873      N1879   1.342       .  A
C1873      C1878   1.385       .  A
C1873      C1874   1.402       .  A
C1874      C1875   1.401       .  A
C1874      H1885   1.082       .  S
C1875      C1884   1.376       .  A
C1875      C1876   1.385       .  A
C1876      N1882   1.342       .  A
C1876      C1877   1.401       .  A
C1877      C1878   1.400       .  A
C1877      H1886   1.082       .  S
C1878      C1881   1.374       .  A
N1879      C1880   1.354       .  A
N1879      H1889   1.046       .  S
C1880      C1881   1.394       .  A
C1881      H1887   1.083       .  S
N1882      C1883   1.354       .  A
N1882      H1890   1.045       .  S
C1883      C1884   1.394       .  A
C1884      H1888   1.082       .  S
C1891      N1897   1.341       .  A
C1891      C1896   1.385       .  A
C1891      C1892   1.401       .  A
C1892      C1893   1.400       .  A
C1892      H1903   1.083       .  S
C1893      C1902   1.376       .  A
C1893      C1894   1.386       .  A
C1894      N1900   1.342       .  A
C1894      C1895   1.402       .  A
C1895      C1896   1.401       .  A
C1895      H1904   1.082       .  S
C1896      C1899   1.378       .  A
N1897      C1898   1.354       .  A
N1897      H1907   1.045       .  S
C1898      C1899   1.393       .  A
C1899      H1905   1.082       .  S
N1900      C1901   1.354       .  A
N1900      H1908   1.045       .  S
C1901      C1902   1.392       .  A
C1902      H1906   1.083       .  S
C1909      N1915   1.342       .  A
C1909      C1914   1.385       .  A
C1909      C1910   1.403       .  A
C1910      C1911   1.402       .  A
C1910      H1921   1.082       .  S
C1911      C1920   1.378       .  A
C1911      C1912   1.385       .  A
C1912      N1918   1.342       .  A
C1912      C1913   1.403       .  A
C1913      C1914   1.402       .  A
C1913      H1922   1.082       .  S
C1914      C1917   1.378       .  A
N1915      C1916   1.355       .  A
N1915      H1925   1.045       .  S
C1916      C1917   1.395       .  A
C1917      H1923   1.082       .  S
N1918      C1919   1.354       .  A
N1918      H1926   1.045       .  S
C1919      C1920   1.393       .  A
C1920      H1924   1.083       .  S
C1927      C1932   1.385       .  A
C1927      C1928   1.400       .  A
C1928      C1929   1.399       .  A
C1929      C1938   1.374       .  A
C1929      C1930   1.385       .  A
C1930      N1936   1.342       .  A
C1930      C1931   1.403       .  A
C1931      C1932   1.402       .  A
C1931      H1940   1.082       .  S
C1932      C1935   1.376       .  A
N1933      H1943   1.043       .  S
C1934      C1935   1.395       .  A
C1935      H1941   1.083       .  S
N1936      C1937   1.355       .  A
N1936      H1944   1.045       .  S
C1937      C1938   1.392       .  A
C1938      H1942   1.082       .  S
C1945      N1951   1.342       .  A
C1945      C1950   1.385       .  A
C1945      C1946   1.402       .  A
C1946      C1947   1.401       .  A
C1947      C1948   1.385       .  A
C1948      N1954   1.340       .  A
C1948      C1949   1.400       .  A
C1949      C1950   1.399       .  A
C1949      H1958   1.083       .  S
C1950      C1953   1.375       .  A
N1951      C1952   1.354       .  A
N1951      H1961   1.044       .  S
C1952      C1953   1.392       .  A
C1953      H1959   1.083       .  S
N1954      C1955   1.354       .  A
N1954      H1962   1.045       .  S
C1956      H1960   1.082       .  S
C1963      C1968   1.385       .  A
C1964      H1975   1.082       .  S
C1965      C1974   1.378       .  A
C1965      C1966   1.385       .  A
C1966      N1972   1.343       .  A
C1966      C1967   1.402       .  A
C1967      C1968   1.402       .  A
C1967      H1976   1.082       .  S
C1968      C1971   1.376       .  A
N1969      H1979   1.045       .  S
C1970      C1971   1.394       .  A
C1971      H1977   1.083       .  S
N1972      C1973   1.354       .  A
N1972      H1980   1.045       .  S
C1973      C1974   1.394       .  A
C1974      H1978   1.082       .  S
C1981      N1982   1.357       .  A
C1981      N1986   1.355       .  A
C1981      C2594   1.465       .  S
N1982      C1983   1.358       .  A
C1983      N1984   1.358       .  A
C1983      C2630   1.470       .  S
N1984      C1985   1.359       .  A
C1985      N1986   1.355       .  A
C1985      C2615   1.464       .  S
C1987      N1988   1.355       .  A
C1987      N1992   1.357       .  A
C1987      C2210   1.466       .  S
N1988      C1989   1.355       .  A
C1989      N1990   1.358       .  A
C1989      C2228   1.465       .  S
N1990      C1991   1.359       .  A
C1991      N1992   1.358       .  A
C1991      C2246   1.469       .  S
C1993      N1994   1.355       .  A
C1993      N1998   1.356       .  A
C1993      C2195   1.465       .  S
N1994      C1995   1.356       .  A
C1995      N1996   1.359       .  A
C1995      C2156   1.466       .  S
N1996      C1997   1.359       .  A
C1997      N1998   1.357       .  A
C1997      C2174   1.467       .  S
C1999      N2000   1.358       .  A
C1999      N2004   1.356       .  A
C1999      C2138   1.466       .  S
N2000      C2001   1.358       .  A
C2001      N2002   1.358       .  A
C2001      C2105   1.466       .  S
N2002      C2003   1.357       .  A
C2003      N2004   1.355       .  A
C2003      C2120   1.466       .  S
N2005      N2006   1.320       .  A
N2005      N2011   1.316       .  A
N2005     Mn2034   2.201       .  S
N2006      C2013   1.352       .  A
N2007      N2009   1.315       .  A
N2007      N2008   1.320       .  A
N2007     Mn2023   2.200       .  S
N2008      C2014   1.352       .  A
N2009      N2010   1.319       .  A
N2009     Mn2034   2.193       .  S
N2010      C2014   1.350       .  A
N2011      N2012   1.321       .  A
N2011     Mn2023   2.203       .  S
N2012      C2013   1.353       .  A
C2013      C2303   1.467       .  S
C2014      C2159   1.462       .  S
N2015      N2016   1.320       .  A
N2015     Mn2045   2.194       .  S
N2016      C2024   1.350   1_655  A
N2017      N2018   1.319       .  A
N2017      N2019   1.315       .  A
N2018      C2025   1.351       .  A
N2019      N2020   1.319       .  A
N2020      C2025   1.351       .  A
N2021      N2022   1.321       .  A
N2021     Mn2023   2.206       .  S
C2024      C2081   1.463   1_465  S
C2025      C2192   1.463       .  S
N2026      N2027   1.319       .  A
N2026      N2032   1.314       .  A
N2027      C2035   1.350       .  A
N2028      N2029   1.320       .  A
N2028     Mn2046   2.201       .  S
N2029      C2366   1.352   1_565  A
N2030      N2031   1.320       .  A
N2030     Mn2034   2.203       .  S
N2032      N2033   1.319       .  A
N2033      C2035   1.352       .  A
C2035      C2267   1.463       .  S
C2036      N2359   1.352   1_544  A
C2036      C2069   1.463   1_645  S
N2037      N2038   1.318       .  A
N2037      N2043   1.315       .  A
N2037     Mn2045   2.189       .  S
N2038      C2048   1.350       .  A
N2039      N2040   1.320       .  A
N2039      N2041   1.316       .  A
N2039     Mn2046   2.199       .  S
N2040      C2049   1.352       .  A
N2041      N2042   1.319       .  A
N2041     Mn2045   2.196       .  S
N2042      C2049   1.350       .  A
N2043      N2044   1.320       .  A
N2043     Mn2046   2.200       .  S
N2044      C2048   1.351       .  A
Mn2045    Cl2047   2.542       .  S
Mn2046    Cl2047   2.546       .  S
C2048      C2282   1.460       .  S
C2049      C2177   1.462       .  S
N2050      N2051   1.321       .  A
N2050      N2056   1.315       .  A
N2050     Mn2079   2.206       .  S
N2051      C2058   1.352       .  A
N2052      N2054   1.316       .  A
N2052      N2053   1.321       .  A
N2052     Mn2068   2.206       .  S
N2053      C2059   1.353       .  A
N2054      N2055   1.319       .  A
N2054     Mn2079   2.194       .  S
N2055      C2059   1.351       .  A
N2056      N2057   1.319       .  A
N2056     Mn2068   2.193       .  S
N2057      C2058   1.351       .  A
C2058      C2249   1.464       .  S
C2059      C2102   1.465       .  S
N2060      N2061   1.321       .  A
N2060     Mn2090   2.203       .  S
N2061      C2069   1.352   1_655  A
N2062      N2063   1.321       .  A
N2062      N2064   1.314       .  A
N2063      C2070   1.352       .  A
N2064      N2065   1.318       .  A
N2065      C2070   1.350       .  A
N2066      N2067   1.320       .  A
N2066     Mn2068   2.200       .  S
C2070      C2141   1.463       .  S
N2071      N2072   1.320       .  A
N2071      N2077   1.315       .  A
N2072      C2080   1.352       .  A
N2073      N2074   1.321       .  A
N2073     Mn2091   2.204       .  S
N2074      C2081   1.352   1_565  A
N2075      N2076   1.320       .  A
N2075     Mn2079   2.197       .  S
N2077      N2078   1.320       .  A
N2078      C2080   1.351       .  A
C2080      C2213   1.465       .  S
N2082      N2083   1.319       .  A
N2082      N2088   1.315       .  A
N2082     Mn2090   2.194       .  S
N2083      C2093   1.351       .  A
N2084      N2085   1.320       .  A
N2084      N2086   1.316       .  A
N2084     Mn2091   2.202       .  S
N2085      C2094   1.352       .  A
N2086      N2087   1.320       .  A
N2086     Mn2090   2.198       .  S
N2087      C2094   1.351       .  A
N2088      N2089   1.320       .  A
N2088     Mn2091   2.198       .  S
N2089      C2093   1.351       .  A
Mn2090    Cl2092   2.541       .  S
Mn2091    Cl2092   2.547       .  S
C2093      C2231   1.462       .  S
C2094      C2123   1.463       .  S
C2095      N2101   1.343       .  A
C2095      C2100   1.385       .  A
C2095      C2096   1.402       .  A
C2096      C2097   1.402       .  A
C2096      H2107   1.082       .  S
C2097      C2106   1.377       .  A
C2097      C2098   1.385       .  A
C2098      N2104   1.342       .  A
C2098      C2099   1.402       .  A
C2099      C2100   1.402       .  A
C2099      H2108   1.082       .  S
C2100      C2103   1.377       .  A
N2101      C2102   1.354       .  A
N2101      H2111   1.045       .  S
C2102      C2103   1.393       .  A
C2103      H2109   1.083       .  S
N2104      C2105   1.355       .  A
N2104      H2112   1.045       .  S
C2105      C2106   1.394       .  A
C2106      H2110   1.082       .  S
C2113      N2119   1.343       .  A
C2113      C2118   1.385       .  A
C2113      C2114   1.402       .  A
C2114      C2115   1.402       .  A
C2114      H2125   1.082       .  S
C2115      C2124   1.376       .  A
C2115      C2116   1.385       .  A
C2116      N2122   1.343       .  A
C2116      C2117   1.402       .  A
C2117      C2118   1.401       .  A
C2117      H2126   1.082       .  S
C2118      C2121   1.375       .  A
N2119      C2120   1.354       .  A
N2119      H2129   1.045       .  S
C2120      C2121   1.394       .  A
C2121      H2127   1.083       .  S
N2122      C2123   1.354       .  A
N2122      H2130   1.044       .  S
C2123      C2124   1.393       .  A
C2124      H2128   1.082       .  S
C2131      N2137   1.342       .  A
C2131      C2136   1.385       .  A
C2131      C2132   1.400       .  A
C2132      C2133   1.400       .  A
C2132      H2143   1.082       .  S
C2133      C2142   1.373       .  A
C2133      C2134   1.385       .  A
C2134      N2140   1.343       .  A
C2134      C2135   1.401       .  A
C2135      C2136   1.401       .  A
C2135      H2144   1.082       .  S
C2136      C2139   1.374       .  A
N2137      C2138   1.354       .  A
N2137      H2147   1.044       .  S
C2138      C2139   1.394       .  A
C2139      H2145   1.083       .  S
N2140      C2141   1.354       .  A
N2140      H2148   1.045       .  S
C2141      C2142   1.393       .  A
C2142      H2146   1.082       .  S
C2149      N2155   1.341       .  A
C2149      C2154   1.385       .  A
C2149      C2150   1.402       .  A
C2150      C2151   1.400       .  A
C2150      H2161   1.083       .  S
C2151      C2160   1.376       .  A
C2151      C2152   1.386       .  A
C2152      N2158   1.342       .  A
C2152      C2153   1.402       .  A
C2153      C2154   1.401       .  A
C2153      H2162   1.082       .  S
C2154      C2157   1.378       .  A
N2155      C2156   1.355       .  A
N2155      H2165   1.045       .  S
C2156      C2157   1.393       .  A
C2157      H2163   1.082       .  S
N2158      C2159   1.353       .  A
N2158      H2166   1.045       .  S
C2159      C2160   1.393       .  A
C2160      H2164   1.083       .  S
C2167      N2173   1.344       .  A
C2167      C2172   1.385       .  A
C2167      C2168   1.403       .  A
C2168      C2169   1.403       .  A
C2168      H2179   1.082       .  S
C2169      C2178   1.377       .  A
C2169      C2170   1.386       .  A
C2170      N2176   1.342       .  A
C2170      C2171   1.400       .  A
C2171      C2172   1.400       .  A
C2171      H2180   1.082       .  S
C2172      C2175   1.374       .  A
N2173      C2174   1.355       .  A
N2173      H2183   1.045       .  S
C2174      C2175   1.393       .  A
C2175      H2181   1.083       .  S
N2176      C2177   1.353       .  A
N2176      H2184   1.045       .  S
C2177      C2178   1.393       .  A
C2178      H2182   1.082       .  S
C2185      N2191   1.341       .  A
C2185      C2190   1.385       .  A
C2185      C2186   1.401       .  A
C2186      C2187   1.400       .  A
C2186      H2197   1.082       .  S
C2187      C2196   1.375       .  A
C2187      C2188   1.385       .  A
C2188      N2194   1.341       .  A
C2188      C2189   1.401       .  A
C2189      C2190   1.400       .  A
C2189      H2198   1.082       .  S
C2190      C2193   1.375       .  A
N2191      C2192   1.354       .  A
N2191      H2201   1.045       .  S
C2192      C2193   1.393       .  A
C2193      H2199   1.082       .  S
N2194      C2195   1.354       .  A
N2194      H2202   1.046       .  S
C2195      C2196   1.394       .  A
C2196      H2200   1.082       .  S
C2203      N2209   1.342       .  A
C2203      C2208   1.385       .  A
C2203      C2204   1.402       .  A
C2204      C2205   1.401       .  A
C2204      H2215   1.082       .  S
C2205      C2214   1.376       .  A
C2205      C2206   1.385       .  A
C2206      N2212   1.342       .  A
C2206      C2207   1.401       .  A
C2207      C2208   1.400       .  A
C2207      H2216   1.082       .  S
C2208      C2211   1.374       .  A
N2209      C2210   1.354       .  A
N2209      H2219   1.046       .  S
C2210      C2211   1.394       .  A
C2211      H2217   1.083       .  S
N2212      C2213   1.354       .  A
N2212      H2220   1.045       .  S
C2213      C2214   1.394       .  A
C2214      H2218   1.082       .  S
C2221      N2227   1.341       .  A
C2221      C2226   1.385       .  A
C2221      C2222   1.401       .  A
C2222      C2223   1.400       .  A
C2222      H2233   1.083       .  S
C2223      C2232   1.376       .  A
C2223      C2224   1.386       .  A
C2224      N2230   1.342       .  A
C2224      C2225   1.402       .  A
C2225      C2226   1.401       .  A
C2225      H2234   1.082       .  S
C2226      C2229   1.378       .  A
N2227      C2228   1.354       .  A
N2227      H2237   1.045       .  S
C2228      C2229   1.393       .  A
C2229      H2235   1.082       .  S
N2230      C2231   1.354       .  A
N2230      H2238   1.045       .  S
C2231      C2232   1.392       .  A
C2232      H2236   1.083       .  S
C2239      N2245   1.342       .  A
C2239      C2244   1.385       .  A
C2239      C2240   1.403       .  A
C2240      C2241   1.402       .  A
C2240      H2251   1.082       .  S
C2241      C2250   1.378       .  A
C2241      C2242   1.385       .  A
C2242      N2248   1.342       .  A
C2242      C2243   1.403       .  A
C2243      C2244   1.402       .  A
C2243      H2252   1.082       .  S
C2244      C2247   1.378       .  A
N2245      C2246   1.355       .  A
N2245      H2255   1.045       .  S
C2246      C2247   1.395       .  A
C2247      H2253   1.082       .  S
N2248      C2249   1.354       .  A
N2248      H2256   1.045       .  S
C2249      C2250   1.393       .  A
C2250      H2254   1.083       .  S
C2257      N2593   1.341       .  A
C2257      C2262   1.385       .  A
C2257      C2258   1.400       .  A
C2258      C2259   1.399       .  A
C2258      H2599   1.082       .  S
C2259      C2268   1.374       .  A
C2259      C2260   1.385       .  A
C2260      N2266   1.342       .  A
C2260      C2261   1.403       .  A
C2261      C2262   1.402       .  A
C2261      H2270   1.082       .  S
C2262      C2265   1.376       .  A
N2263      C2587   1.341       .  A
N2263      C2594   1.354       .  A
N2263      H2273   1.043       .  S
C2264      N2593   1.354       .  A
C2264      C2311   1.465       .  S
C2264      C2265   1.395       .  A
C2265      H2271   1.083       .  S
N2266      C2267   1.355       .  A
N2266      H2274   1.045       .  S
C2267      C2268   1.392       .  A
C2268      H2272   1.082       .  S
H2269      C2588   1.082       .  S
C2275      N2281   1.342       .  A
C2275      C2280   1.385       .  A
C2275      C2276   1.402       .  A
C2276      C2277   1.401       .  A
C2276      H2617   1.082       .  S
C2277      C2616   1.377       .  A
C2277      C2278   1.385       .  A
C2278      N2284   1.340       .  A
C2278      C2279   1.400       .  A
C2279      C2280   1.399       .  A
C2279      H2288   1.083       .  S
C2280      C2283   1.375       .  A
N2281      C2282   1.354       .  A
N2281      H2291   1.044       .  S
C2282      C2283   1.392       .  A
C2283      H2289   1.083       .  S
N2284      C2285   1.354       .  A
N2284      H2292   1.045       .  S
C2285      C2315   1.464       .  S
C2285      C2616   1.393       .  A
C2286      C2607   1.377       .  A
C2286      C2615   1.393       .  A
C2286      H2290   1.082   1_556  S
H2287      C2606   1.082       .  S
C2293      N2629   1.344       .  A
C2293      C2298   1.385       .  A
C2293      C2624   1.404       .  A
C2294      C2623   1.404       .  A
C2294      C2625   1.403       .  A
C2294      H2305   1.082       .  S
C2295      C2624   1.403       .  A
C2295      C2304   1.378       .  A
C2295      C2296   1.385       .  A
C2296      N2302   1.343       .  A
C2296      C2297   1.402       .  A
C2297      C2298   1.402       .  A
C2297      H2306   1.082       .  S
C2298      C2301   1.376       .  A
N2299      C2623   1.344       .  A
N2299      C2630   1.355       .  A
N2299      H2309   1.045       .  S
C2300      N2629   1.355       .  A
C2300      C2313   1.470       .  S
C2300      C2301   1.394       .  A
C2301      H2307   1.083       .  S
N2302      C2303   1.354       .  A
N2302      H2310   1.045       .  S
C2303      C2304   1.394       .  A
C2304      H2308   1.082       .  S
C2311      N2312   1.357       .  A
C2311      N2316   1.355       .  A
N2312      C2313   1.358       .  A
C2313      N2314   1.358       .  A
N2314      C2315   1.359       .  A
C2315      N2316   1.355       .  A
C2317      N2318   1.355       .  A
C2317      N2322   1.357       .  A
C2317      C2540   1.466       .  S
N2318      C2319   1.355       .  A
C2319      N2320   1.358       .  A
C2319      C2558   1.465       .  S
N2320      C2321   1.359       .  A
C2321      N2322   1.358       .  A
C2321      C2576   1.469       .  S
C2323      N2324   1.355       .  A
C2323      N2328   1.356       .  A
C2323      C2525   1.465       .  S
N2324      C2325   1.356       .  A
C2325      N2326   1.359       .  A
C2325      C2486   1.466       .  S
N2326      C2327   1.359       .  A
C2327      N2328   1.357       .  A
C2327      C2504   1.467       .  S
C2329      N2330   1.358       .  A
C2329      N2334   1.356       .  A
C2329      C2468   1.466       .  S
N2330      C2331   1.358       .  A
C2331      N2332   1.358       .  A
C2331      C2435   1.466       .  S
N2332      C2333   1.357       .  A
C2333      N2334   1.355       .  A
C2333      C2450   1.466       .  S
N2335      N2336   1.320       .  A
N2335      N2341   1.316       .  A
N2335     Mn2364   2.201       .  S
N2336      C2343   1.352       .  A
N2337      N2339   1.315       .  A
N2337      N2338   1.320       .  A
N2337     Mn2353   2.200       .  S
N2338      C2344   1.352       .  A
N2339      N2340   1.319       .  A
N2339     Mn2364   2.193       .  S
N2340      C2344   1.350       .  A
N2341      N2342   1.321       .  A
N2341     Mn2353   2.203       .  S
N2342      C2343   1.353       .  A
C2343      C2633   1.467       .  S
C2344      C2489   1.462       .  S
N2345      N2346   1.320       .  A
N2345     Mn2375   2.194       .  S
N2346      C2354   1.350   1_655  A
N2347      N2348   1.319       .  A
N2347      N2349   1.315       .  A
N2348      C2355   1.351       .  A
N2349      N2350   1.319       .  A
N2350      C2355   1.351       .  A
N2351      N2352   1.321       .  A
N2351     Mn2353   2.206       .  S
C2354      C2411   1.463   1_465  S
C2355      C2522   1.463       .  S
N2356      N2357   1.319       .  A
N2356      N2362   1.314       .  A
N2357      C2365   1.350       .  A
N2358      N2359   1.320       .  A
N2358     Mn2376   2.201       .  S
N2360      N2361   1.320       .  A
N2360     Mn2364   2.203       .  S
N2362      N2363   1.319       .  A
N2363      C2365   1.352       .  A
C2365      C2597   1.463       .  S
C2366      C2399   1.463   1_645  S
N2367      N2368   1.318       .  A
N2367      N2373   1.315       .  A
N2367     Mn2375   2.189       .  S
N2368      C2378   1.350       .  A
N2369      N2370   1.320       .  A
N2369      N2371   1.316       .  A
N2369     Mn2376   2.199       .  S
N2370      C2379   1.352       .  A
N2371      N2372   1.319       .  A
N2371     Mn2375   2.196       .  S
N2372      C2379   1.350       .  A
N2373      N2374   1.320       .  A
N2373     Mn2376   2.200       .  S
N2374      C2378   1.351       .  A
Mn2375    Cl2377   2.542       .  S
Mn2376    Cl2377   2.546       .  S
C2378      C2612   1.460       .  S
C2379      C2507   1.462       .  S
N2380      N2381   1.321       .  A
N2380      N2386   1.315       .  A
N2380     Mn2409   2.206       .  S
N2381      C2388   1.352       .  A
N2382      N2384   1.316       .  A
N2382      N2383   1.321       .  A
N2382     Mn2398   2.206       .  S
N2383      C2389   1.353       .  A
N2384      N2385   1.319       .  A
N2384     Mn2409   2.194       .  S
N2385      C2389   1.351       .  A
N2386      N2387   1.319       .  A
N2386     Mn2398   2.193       .  S
N2387      C2388   1.351       .  A
C2388      C2579   1.464       .  S
C2389      C2432   1.465       .  S
N2390      N2391   1.321       .  A
N2390     Mn2420   2.203       .  S
N2391      C2399   1.352   1_655  A
N2392      N2393   1.321       .  A
N2392      N2394   1.314       .  A
N2393      C2400   1.352       .  A
N2394      N2395   1.318       .  A
N2395      C2400   1.350       .  A
N2396      N2397   1.320       .  A
N2396     Mn2398   2.200       .  S
C2400      C2471   1.463       .  S
N2401      N2402   1.320       .  A
N2401      N2407   1.315       .  A
N2402      C2410   1.352       .  A
N2403      N2404   1.321       .  A
N2403     Mn2421   2.204       .  S
N2404      C2411   1.352   1_565  A
N2405      N2406   1.320       .  A
N2405     Mn2409   2.197       .  S
N2407      N2408   1.320       .  A
N2408      C2410   1.351       .  A
C2410      C2543   1.465       .  S
N2412      N2413   1.319       .  A
N2412      N2418   1.315       .  A
N2412     Mn2420   2.194       .  S
N2413      C2423   1.351       .  A
N2414      N2415   1.320       .  A
N2414      N2416   1.316       .  A
N2414     Mn2421   2.202       .  S
N2415      C2424   1.352       .  A
N2416      N2417   1.320       .  A
N2416     Mn2420   2.198       .  S
N2417      C2424   1.351       .  A
N2418      N2419   1.320       .  A
N2418     Mn2421   2.198       .  S
N2419      C2423   1.351       .  A
Mn2420    Cl2422   2.541       .  S
Mn2421    Cl2422   2.547       .  S
C2423      C2561   1.462       .  S
C2424      C2453   1.463       .  S
C2425      N2431   1.343       .  A
C2425      C2430   1.385       .  A
C2425      C2426   1.402       .  A
C2426      C2427   1.402       .  A
C2426      H2437   1.082       .  S
C2427      C2436   1.377       .  A
C2427      C2428   1.385       .  A
C2428      N2434   1.342       .  A
C2428      C2429   1.402       .  A
C2429      C2430   1.402       .  A
C2429      H2438   1.082       .  S
C2430      C2433   1.377       .  A
N2431      C2432   1.354       .  A
N2431      H2441   1.045       .  S
C2432      C2433   1.393       .  A
C2433      H2439   1.083       .  S
N2434      C2435   1.355       .  A
N2434      H2442   1.045       .  S
C2435      C2436   1.394       .  A
C2436      H2440   1.082       .  S
C2443      N2449   1.343       .  A
C2443      C2448   1.385       .  A
C2443      C2444   1.402       .  A
C2444      C2445   1.402       .  A
C2444      H2455   1.082       .  S
C2445      C2454   1.376       .  A
C2445      C2446   1.385       .  A
C2446      N2452   1.343       .  A
C2446      C2447   1.402       .  A
C2447      C2448   1.401       .  A
C2447      H2456   1.082       .  S
C2448      C2451   1.375       .  A
N2449      C2450   1.354       .  A
N2449      H2459   1.045       .  S
C2450      C2451   1.394       .  A
C2451      H2457   1.083       .  S
N2452      C2453   1.354       .  A
N2452      H2460   1.044       .  S
C2453      C2454   1.393       .  A
C2454      H2458   1.082       .  S
C2461      N2467   1.342       .  A
C2461      C2466   1.385       .  A
C2461      C2462   1.400       .  A
C2462      C2463   1.400       .  A
C2462      H2473   1.082       .  S
C2463      C2472   1.373       .  A
C2463      C2464   1.385       .  A
C2464      N2470   1.343       .  A
C2464      C2465   1.401       .  A
C2465      C2466   1.401       .  A
C2465      H2474   1.082       .  S
C2466      C2469   1.374       .  A
N2467      C2468   1.354       .  A
N2467      H2477   1.044       .  S
C2468      C2469   1.394       .  A
C2469      H2475   1.083       .  S
N2470      C2471   1.354       .  A
N2470      H2478   1.045       .  S
C2471      C2472   1.393       .  A
C2472      H2476   1.082       .  S
C2479      N2485   1.341       .  A
C2479      C2484   1.385       .  A
C2479      C2480   1.402       .  A
C2480      C2481   1.400       .  A
C2480      H2491   1.083       .  S
C2481      C2490   1.376       .  A
C2481      C2482   1.386       .  A
C2482      N2488   1.342       .  A
C2482      C2483   1.402       .  A
C2483      C2484   1.401       .  A
C2483      H2492   1.082       .  S
C2484      C2487   1.378       .  A
N2485      C2486   1.355       .  A
N2485      H2495   1.045       .  S
C2486      C2487   1.393       .  A
C2487      H2493   1.082       .  S
N2488      C2489   1.353       .  A
N2488      H2496   1.045       .  S
C2489      C2490   1.393       .  A
C2490      H2494   1.083       .  S
C2497      N2503   1.344       .  A
C2497      C2502   1.385       .  A
C2497      C2498   1.403       .  A
C2498      C2499   1.403       .  A
C2498      H2509   1.082       .  S
C2499      C2508   1.377       .  A
C2499      C2500   1.386       .  A
C2500      N2506   1.342       .  A
C2500      C2501   1.400       .  A
C2501      C2502   1.400       .  A
C2501      H2510   1.082       .  S
C2502      C2505   1.374       .  A
N2503      C2504   1.355       .  A
N2503      H2513   1.045       .  S
C2504      C2505   1.393       .  A
C2505      H2511   1.083       .  S
N2506      C2507   1.353       .  A
N2506      H2514   1.045       .  S
C2507      C2508   1.393       .  A
C2508      H2512   1.082       .  S
C2515      N2521   1.341       .  A
C2515      C2520   1.385       .  A
C2515      C2516   1.401       .  A
C2516      C2517   1.400       .  A
C2516      H2527   1.082       .  S
C2517      C2526   1.375       .  A
C2517      C2518   1.385       .  A
C2518      N2524   1.341       .  A
C2518      C2519   1.401       .  A
C2519      C2520   1.400       .  A
C2519      H2528   1.082       .  S
C2520      C2523   1.375       .  A
N2521      C2522   1.354       .  A
N2521      H2531   1.045       .  S
C2522      C2523   1.393       .  A
C2523      H2529   1.082       .  S
N2524      C2525   1.354       .  A
N2524      H2532   1.046       .  S
C2525      C2526   1.394       .  A
C2526      H2530   1.082       .  S
C2533      N2539   1.342       .  A
C2533      C2538   1.385       .  A
C2533      C2534   1.402       .  A
C2534      C2535   1.401       .  A
C2534      H2545   1.082       .  S
C2535      C2544   1.376       .  A
C2535      C2536   1.385       .  A
C2536      N2542   1.342       .  A
C2536      C2537   1.401       .  A
C2537      C2538   1.400       .  A
C2537      H2546   1.082       .  S
C2538      C2541   1.374       .  A
N2539      C2540   1.354       .  A
N2539      H2549   1.046       .  S
C2540      C2541   1.394       .  A
C2541      H2547   1.083       .  S
N2542      C2543   1.354       .  A
N2542      H2550   1.045       .  S
C2543      C2544   1.394       .  A
C2544      H2548   1.082       .  S
C2551      N2557   1.341       .  A
C2551      C2556   1.385       .  A
C2551      C2552   1.401       .  A
C2552      C2553   1.400       .  A
C2552      H2563   1.083       .  S
C2553      C2562   1.376       .  A
C2553      C2554   1.386       .  A
C2554      N2560   1.342       .  A
C2554      C2555   1.402       .  A
C2555      C2556   1.401       .  A
C2555      H2564   1.082       .  S
C2556      C2559   1.378       .  A
N2557      C2558   1.354       .  A
N2557      H2567   1.045       .  S
C2558      C2559   1.393       .  A
C2559      H2565   1.082       .  S
N2560      C2561   1.354       .  A
N2560      H2568   1.045       .  S
C2561      C2562   1.392       .  A
C2562      H2566   1.083       .  S
C2569      N2575   1.342       .  A
C2569      C2574   1.385       .  A
C2569      C2570   1.403       .  A
C2570      C2571   1.402       .  A
C2570      H2581   1.082       .  S
C2571      C2580   1.378       .  A
C2571      C2572   1.385       .  A
C2572      N2578   1.342       .  A
C2572      C2573   1.403       .  A
C2573      C2574   1.402       .  A
C2573      H2582   1.082       .  S
C2574      C2577   1.378       .  A
N2575      C2576   1.355       .  A
N2575      H2585   1.045       .  S
C2576      C2577   1.395       .  A
C2577      H2583   1.082       .  S
N2578      C2579   1.354       .  A
N2578      H2586   1.045       .  S
C2579      C2580   1.393       .  A
C2580      H2584   1.083       .  S
C2587      C2592   1.385       .  A
C2587      C2588   1.400       .  A
C2588      C2589   1.399       .  A
C2589      C2598   1.374       .  A
C2589      C2590   1.385       .  A
C2590      N2596   1.342       .  A
C2590      C2591   1.403       .  A
C2591      C2592   1.402       .  A
C2591      H2600   1.082       .  S
C2592      C2595   1.376       .  A
N2593      H2603   1.043       .  S
C2594      C2595   1.395       .  A
C2595      H2601   1.083       .  S
N2596      C2597   1.355       .  A
N2596      H2604   1.045       .  S
C2597      C2598   1.392       .  A
C2598      H2602   1.082       .  S
C2605      N2611   1.342       .  A
C2605      C2610   1.385       .  A
C2605      C2606   1.402       .  A
C2606      C2607   1.401       .  A
C2607      C2608   1.385       .  A
C2608      N2614   1.340       .  A
C2608      C2609   1.400       .  A
C2609      C2610   1.399       .  A
C2609      H2618   1.083       .  S
C2610      C2613   1.375       .  A
N2611      C2612   1.354       .  A
N2611      H2621   1.044       .  S
C2612      C2613   1.392       .  A
C2613      H2619   1.083       .  S
N2614      C2615   1.354       .  A
N2614      H2622   1.045       .  S
C2616      H2620   1.082       .  S
C2623      C2628   1.385       .  A
C2624      H2635   1.082       .  S
C2625      C2634   1.378       .  A
C2625      C2626   1.385       .  A
C2626      N2632   1.343       .  A
C2626      C2627   1.402       .  A
C2627      C2628   1.402       .  A
C2627      H2636   1.082       .  S
C2628      C2631   1.376       .  A
N2629      H2639   1.045       .  S
C2630      C2631   1.394       .  A
C2631      H2637   1.083       .  S
N2632      C2633   1.354       .  A
N2632      H2640   1.045       .  S
C2633      C2634   1.394       .  A
C2634      H2638   1.082       .  S
