geometry optimzed in LAMMPS
_audit_creation_date              2020-12-01 
_audit_creation_method            'lammps2cif' 
_symmetry_space_group_name_H-M    'P1' 
_symmetry_Int_Tables_number       1 
_symmetry_cell_setting            triclinic 
loop_ 
_symmetry_equiv_pos_as_xyz 
  x,y,z 
_cell_length_a                    33.49352178 
_cell_length_b                    33.58368776938017 
_cell_length_c                    33.527090262054735 
_cell_angle_alpha                 89.98524201296917 
_cell_angle_beta                  90.00312624905666 
_cell_angle_gamma                 90.00393939443623 
loop_ 
_atom_site_label 
_atom_site_type_symbol 
_atom_site_fract_x 
_atom_site_fract_y 
_atom_site_fract_z 
_atom_site_charge 
O1          O  0.95002436  0.60303771  0.73604604    -0.77600
C2          C  0.08288754  0.60693706  0.75211618     0.83400
O3          O  0.99897962  0.53588529  0.85114403    -0.78700
O4          O  0.07077209  0.67245896  0.86624573    -0.80200
O5          O  0.96539752  0.71491471  0.77454171    -0.80000
O6          O  0.90951363  0.62856809  0.78195075    -0.78600
Zn7        Zn  0.99927424  0.59414778  0.76802825     1.55700
O8          O  0.03237194  0.71542398  0.77488309    -0.80000
Cd9        Cd  0.95146289  0.66432490  0.80929424     1.59700
Cd10       Cd  0.99946770  0.59812424  0.86072276     1.59600
O11         O  0.92789155  0.67233303  0.86621310    -0.80000
O12         O  0.99928105  0.63007140  0.81207503    -1.90500
Cd13       Cd  0.04680061  0.66480111  0.80940096     1.59900
O14         O  0.95057841  0.61535657  0.89274592    -0.80000
O15         O  0.08898355  0.62969148  0.78174625    -0.78600
C16         C  0.99887250  0.51664011  0.81825986     0.83900
C17         C  0.91578825  0.60613129  0.75211000     0.83600
O18         O  0.04863241  0.60309075  0.73624384    -0.77600
C19         C  0.99883122  0.72962497  0.76294651     0.84400
O20         O  0.99902265  0.53515931  0.78498195    -0.77700
C21         C  0.92716520  0.64532747  0.89313749     0.84500
C22         C  0.07203282  0.64514962  0.89284810     0.84800
O23         O  0.04886992  0.61496611  0.89231866    -0.80100
O24         O  0.04920489  0.38763329  0.73670089    -0.77600
C25         C  0.91636311  0.38114861  0.75232699     0.83400
O26         O  0.99976856  0.45277879  0.85110630    -0.78700
O27         O  0.92929915  0.31551701  0.86640480    -0.80200
O28         O  0.03399096  0.27383879  0.77425504    -0.80000
O29         O  0.08966906  0.36001334  0.78159406    -0.78600
Zn30       Zn  0.99936028  0.39466521  0.76808113     1.55700
O31         O  0.96702769  0.27333520  0.77465893    -0.80000
Cd32       Cd  0.04788285  0.32436697  0.80905004     1.59700
Cd33       Cd  0.00004918  0.39049113  0.86057282     1.59600
O34         O  0.07184811  0.31651239  0.86586092    -0.80000
O35         O  0.00009795  0.35859396  0.81197518    -1.90500
Cd36       Cd  0.95273216  0.32365889  0.80949592     1.59900
O37         O  0.04925596  0.37354212  0.89232947    -0.80000
O38         O  0.91032144  0.35884371  0.78231142    -0.78600
C39         C  0.99881502  0.47207473  0.81825546     0.83900
C40         C  0.08350415  0.38328522  0.75237477     0.83600
O41         O  0.95048917  0.38422318  0.73602459    -0.77600
C42         C  0.00054186  0.25921586  0.76261074     0.84400
O43         O  0.99808655  0.45359590  0.78498632    -0.77700
C44         C  0.07269501  0.34358223  0.89271336     0.84500
C45         C  0.92799405  0.34286453  0.89293859     0.84800
O46         O  0.95099164  0.37315743  0.89229254    -0.80100
O47         O  0.11125073  0.44597880  0.75713539    -0.77600
C48         C  0.11258076  0.57799289  0.74053537     0.83400
O49         O  0.04155664  0.49432389  0.64273150    -0.78700
O50         O  0.17840313  0.56614801  0.62658570    -0.80200
O51         O  0.22166551  0.46170516  0.71788851    -0.80000
O52         O  0.13559189  0.40546240  0.71073627    -0.78600
Zn53       Zn  0.10058037  0.49465477  0.72512503     1.55700
O54         O  0.22142870  0.52851992  0.71799551    -0.80000
Cd55       Cd  0.17108094  0.44735470  0.68323888     1.59700
Cd56       Cd  0.10396820  0.49458069  0.63238182     1.59600
O57         O  0.17873100  0.42333913  0.62645337    -0.80000
O58         O  0.13627220  0.49478630  0.68073888    -1.90500
Cd59       Cd  0.17071880  0.54245110  0.68337426     1.59900
O60         O  0.12104485  0.44531132  0.60059421    -0.80000
O61         O  0.13502117  0.58434217  0.71068152    -0.78600
C62         C  0.02230548  0.49401279  0.67567492     0.83900
C63         C  0.11348801  0.41191669  0.74080079     0.83600
O64         O  0.10976675  0.54389680  0.75673346    -0.77600
C65         C  0.23597261  0.49514602  0.72974307     0.84400
O66         O  0.04099223  0.49395272  0.70891646    -0.77700
C67         C  0.15122582  0.42207792  0.59997752     0.84500
C68         C  0.15090242  0.56730257  0.60012325     0.84800
O69         O  0.12080454  0.54395091  0.60066591    -0.80100
O70         O  0.88930984  0.54281389  0.75669938    -0.77600
C71         C  0.88692293  0.41032578  0.74069772     0.83400
O72         O  0.95834106  0.49353449  0.64263467    -0.78700
O73         O  0.82134102  0.42203812  0.62650611    -0.80200
O74         O  0.77822433  0.52660492  0.71740115    -0.80000
O75         O  0.86425793  0.58293341  0.71023570    -0.78600
Zn76       Zn  0.89923236  0.49365346  0.72503260     1.55700
O77         O  0.77837672  0.45979718  0.71768694    -0.80000
Cd78       Cd  0.82885482  0.54083532  0.68278644     1.59700
Cd79       Cd  0.89594333  0.49343506  0.63226035     1.59600
O80         O  0.82114758  0.56434100  0.62581099    -0.80000
O81         O  0.86360469  0.49342647  0.68059256    -1.90500
Cd82       Cd  0.82904887  0.44583411  0.68322291     1.59900
O83         O  0.87896521  0.54253406  0.60012735    -0.80000
O84         O  0.86452881  0.40403339  0.71080202    -0.78600
C85         C  0.97752773  0.49379169  0.67561670     0.83900
C86         C  0.88643275  0.57685529  0.74035977     0.83600
O87         O  0.88992044  0.44444982  0.75682873    -0.77600
C88         C  0.76390992  0.49320415  0.72936432     0.84400
O89         O  0.95877355  0.49391347  0.70881033    -0.77700
C90         C  0.84868522  0.56563487  0.59938241     0.84500
C91         C  0.84882992  0.42092892  0.60003918     0.84800
O92         O  0.87900888  0.44414737  0.60068560    -0.80100
O93         O  0.61214986  0.04418414  0.73622810    -0.77600
C94         C  0.61347278  0.91199115  0.75260812     0.83400
O95         O  0.54205372  0.99524369  0.85000198    -0.78700
O96         O  0.67896790  0.92374530  0.86721000    -0.80200
O97         O  0.72222908  0.02832749  0.77537904    -0.80000
O98         O  0.63582729  0.08466615  0.78295070    -0.78600
Zn99       Zn  0.60151476  0.99525166  0.76795193     1.55700
O100        O  0.72208465  0.96149048  0.77546628    -0.80000
Cd101      Cd  0.67164440  0.04262189  0.81008971     1.59700
Cd102      Cd  0.60443470  0.99498079  0.86073398     1.59600
O103        O  0.67933405  0.06609912  0.86696798    -0.80000
O104        O  0.63696947  0.99503718  0.81255833    -1.90500
Cd105      Cd  0.67140490  0.94737653  0.81021155     1.59900
O106        O  0.62141203  0.04420039  0.89242720    -0.80000
O107        O  0.63551633  0.90558028  0.78276638    -0.78600
C108        C  0.52292549  0.99558917  0.81697787     0.83900
C109        C  0.61380738  0.07815560  0.75281753     0.83600
O110        O  0.61122797  0.94606836  0.73625949    -0.77600
C111        C  0.73653411  0.99487031  0.76355612     0.84400
O112        O  0.54176845  0.99573470  0.78381350    -0.77700
C113        C  0.65163216  0.06736469  0.89321852     0.84500
C114        C  0.65140378  0.92255897  0.89362818     0.84800
O115        O  0.62118937  0.94575263  0.89283399    -0.80100
O116        O  0.39171082  0.94523384  0.73633833    -0.77600
C117        C  0.38597375  0.07758385  0.75193037     0.83400
O118        O  0.45882620  0.99460052  0.84980901    -0.78700
O119        O  0.32149094  0.06557554  0.86660931    -0.80200
O120        O  0.27851349  0.96099687  0.77481974    -0.80000
O121        O  0.36473212  0.90516938  0.78188932    -0.78600
Zn122      Zn  0.39973797  0.99501660  0.76750900     1.55700
O123        O  0.27792783  0.02776807  0.77538846    -0.80000
Cd124      Cd  0.32931032  0.94711759  0.80927592     1.59700
Cd125      Cd  0.39634951  0.99455883  0.86015983     1.59600
O126        O  0.32146110  0.92346729  0.86607407    -0.80000
O127        O  0.36393276  0.99459911  0.81184587    -1.90500
Cd128      Cd  0.32881671  0.04185925  0.80971740     1.59900
O129        O  0.37919649  0.94533013  0.89194710    -0.80000
O130        O  0.36395965  0.08385827  0.78209914    -0.78600
C131        C  0.47810438  0.99558570  0.81688887     0.83900
C132        C  0.38769768  0.91113919  0.75235235     0.83600
O133        O  0.38829894  0.04357851  0.73545182    -0.77600
C134        C  0.26372892  0.99435274  0.76336225     0.84400
O135        O  0.45939556  0.99633535  0.78366765    -0.77700
C136        C  0.34889508  0.92223921  0.89259690     0.84500
C137        C  0.34913025  0.06686516  0.89293092     0.84800
O138        O  0.37941261  0.04376561  0.89210643    -0.80100
O139        O  0.54906950  0.10148991  0.75680020    -0.77600
C140        C  0.41577863  0.10642507  0.74046540     0.83400
O141        O  0.49907515  0.03573536  0.64193539    -0.78700
O142        O  0.42807842  0.17251928  0.62673672    -0.80200
O143        O  0.53253337  0.21534221  0.71842065    -0.80000
O144        O  0.58923064  0.12976902  0.71204382    -0.78600
Zn145      Zn  0.49933105  0.09377267  0.72510057     1.55700
O146        O  0.46557505  0.21513279  0.71846898    -0.80000
Cd147      Cd  0.54703940  0.16465191  0.68406179     1.59700
Cd148      Cd  0.49949333  0.09805884  0.63249507     1.59600
O149        O  0.57115457  0.17221192  0.62720503    -0.80000
O150        O  0.49953647  0.12995413  0.68118524    -1.90500
Cd151      Cd  0.45187054  0.16458137  0.68362279     1.59900
O152        O  0.54881694  0.11503575  0.60079990    -0.80000
O153        O  0.40981371  0.12910078  0.71075422    -0.78600
C154        C  0.49867778  0.01641763  0.67478462     0.83900
C155        C  0.58338289  0.10644014  0.74129694     0.83600
O156        O  0.44989521  0.10286239  0.75673668    -0.77600
C157        C  0.49901435  0.22968757  0.73021206     0.84400
O158        O  0.49863158  0.03487953  0.70806556    -0.77700
C159        C  0.57216485  0.14508376  0.60040394     0.84500
C160        C  0.42711773  0.14533895  0.60000548     0.84800
O161        O  0.45042641  0.11528021  0.60056727    -0.80100
O162        O  0.45064606  0.88360901  0.75720217    -0.77600
C163        C  0.58354852  0.88326389  0.74082407     0.83400
O164        O  0.49933356  0.95259676  0.64189942    -0.78700
O165        O  0.57159653  0.81667948  0.62699757    -0.80200
O166        O  0.46661727  0.77343954  0.71816519    -0.80000
O167        O  0.41010674  0.85921461  0.71077924    -0.78600
Zn168      Zn  0.49935046  0.89440246  0.72499683     1.55700
O169        O  0.53361827  0.77388728  0.71829445    -0.80000
Cd170      Cd  0.45224712  0.82378433  0.68350524     1.59700
Cd171      Cd  0.49955261  0.89035276  0.63224042     1.59600
O172        O  0.42841166  0.81558144  0.62678055    -0.80000
O173        O  0.49984053  0.85853311  0.68089577    -1.90500
Cd174      Cd  0.54775506  0.82454469  0.68381716     1.59900
O175        O  0.45034362  0.87303265  0.60068411    -0.80000
O176        O  0.58968438  0.86022780  0.71140275    -0.78600
C177        C  0.49855662  0.97184967  0.67477642     0.83900
C178        C  0.41649571  0.88129131  0.74084204     0.83600
O179        O  0.54923024  0.88740468  0.75648825    -0.77600
C180        C  0.50018601  0.75923728  0.72996714     0.84400
O181        O  0.49797788  0.95334364  0.70805833    -0.77700
C182        C  0.42720843  0.84284017  0.60014664     0.84500
C183        C  0.57232957  0.84364565  0.60003295     0.84800
O184        O  0.54873392  0.87349304  0.60027106    -0.80100
O185        O  0.39041830  0.73468057  0.04542037    -0.77600
C186        C  0.38696703  0.75088362  0.91318352     0.83400
O187        O  0.45816601  0.84917452  0.99597717    -0.78700
O188        O  0.32131948  0.86498477  0.92470517    -0.80200
O189        O  0.27839885  0.77360509  0.02994454    -0.80000
O190        O  0.36504634  0.78051394  0.08598104    -0.78600
Zn191      Zn  0.39936860  0.76659098  0.99627261     1.55700
O192        O  0.27828111  0.77360640  0.96300891    -0.80000
Cd193      Cd  0.32929508  0.80809293  0.04408544     1.59700
Cd194      Cd  0.39587872  0.85916895  0.99597618     1.59600
O195        O  0.32196233  0.86492700  0.06780959    -0.80000
O196        O  0.36360572  0.81080174  0.99629913    -1.90500
Cd197      Cd  0.32896721  0.80822567  0.94867171     1.59900
O198        O  0.37924522  0.89108849  0.04509774    -0.80000
O199        O  0.36468059  0.78079737  0.90675739    -0.78600
C200        C  0.47735192  0.81628362  0.99601521     0.83900
C201        C  0.38744669  0.75066039  0.07963866     0.83600
O202        O  0.38954501  0.73470194  0.94734239    -0.77600
C203        C  0.26388759  0.76180747  0.99650218     0.84400
O204        O  0.45868104  0.78311048  0.99603055    -0.77700
C205        C  0.34927962  0.89156902  0.06860199     0.84500
C206        C  0.34878411  0.89146494  0.92349401     0.84800
O207        O  0.37896469  0.89086886  0.94672627    -0.80100
O208        O  0.60909178  0.73498500  0.94680907    -0.77600
C209        C  0.61228219  0.74988171  0.07996262     0.83400
O210        O  0.54134468  0.84906515  0.99637995    -0.78700
O211        O  0.67812143  0.86375647  0.06816468    -0.80200
O212        O  0.72090555  0.77301060  0.96295613    -0.80000
O213        O  0.63494269  0.78130480  0.90695803    -0.78600
Zn214      Zn  0.59974174  0.76625314  0.99630297     1.55700
O215        O  0.72088514  0.77260014  0.02985139    -0.80000
Cd216      Cd  0.67051255  0.80815340  0.94914525     1.59700
Cd217      Cd  0.60373652  0.85876239  0.99647646     1.59600
O218        O  0.67860121  0.86509367  0.92572830    -0.80000
O219        O  0.63573647  0.81026078  0.99660357    -1.90500
Cd220      Cd  0.67035258  0.80717773  0.04412217     1.59900
O221        O  0.62085554  0.89092357  0.94746856    -0.80000
O222        O  0.63519227  0.77938346  0.08603621    -0.78600
C223        C  0.52203229  0.81623640  0.99611129     0.83900
C224        C  0.61246530  0.75142433  0.91280724     0.83600
O225        O  0.60801778  0.73427280  0.04566582    -0.77600
C226        C  0.73523726  0.76090762  0.99634722     0.84400
O227        O  0.54058588  0.78302492  0.99597590    -0.77700
C228        C  0.65121493  0.89164138  0.92445294     0.84500
C229        C  0.65088181  0.89045725  0.06911678     0.84800
O230        O  0.62079556  0.89009524  0.04576114    -0.80100
O231        O  0.45105923  0.75488835  0.10590503    -0.77600
C232        C  0.58373824  0.73813480  0.11001294     0.83400
O233        O  0.50068876  0.64149204  0.03805728    -0.78700
O234        O  0.57140081  0.62363484  0.17487266    -0.80200
O235        O  0.46683581  0.71597634  0.21713493    -0.80000
O236        O  0.41067704  0.70866487  0.13099701    -0.78600
Zn237      Zn  0.50076023  0.72339637  0.09732014     1.55700
O238        O  0.53383330  0.71533026  0.21769086    -0.80000
Cd239      Cd  0.45269832  0.68134538  0.16665621     1.59700
Cd240      Cd  0.50059011  0.63058478  0.10012059     1.59600
O241        O  0.42934679  0.62453920  0.17459243    -0.80000
O242        O  0.50045604  0.67870582  0.13247950    -1.90500
Cd243      Cd  0.54800367  0.68060126  0.16720939     1.59900
O244        O  0.45131947  0.59868326  0.11695042    -0.80000
O245        O  0.59008834  0.70770278  0.13157096    -0.78600
C246        C  0.50137291  0.67450366  0.01906535     0.83900
C247        C  0.41685313  0.73873142  0.10885962     0.83600
O248        O  0.54976794  0.75492656  0.10850622    -0.77600
C249        C  0.50032653  0.72746619  0.23178363     0.84400
O250        O  0.50179604  0.70758799  0.03786682    -0.77700
C251        C  0.42821029  0.59800857  0.14723713     0.84500
C252        C  0.57273847  0.59739236  0.14722949     0.84800
O253        O  0.54982221  0.59847020  0.11681369    -0.80100
O254        O  0.54943332  0.75606381  0.88536478    -0.77600
C255        C  0.41671045  0.73915814  0.88429278     0.83400
O256        O  0.50091915  0.64169892  0.95531698    -0.78700
O257        O  0.42908255  0.62499567  0.81921100    -0.80200
O258        O  0.53386484  0.71583630  0.77544654    -0.80000
O259        O  0.59003106  0.70957090  0.86125369    -0.78600
Zn260      Zn  0.50070578  0.72393574  0.89631311     1.55700
O261        O  0.46687267  0.71617582  0.77598523    -0.80000
Cd262      Cd  0.54821921  0.68155524  0.82616783     1.59700
Cd263      Cd  0.50083279  0.63104813  0.89325423     1.59600
O264        O  0.57255216  0.62482241  0.81911980    -0.80000
O265        O  0.50064808  0.67932212  0.86095149    -1.90500
Cd266      Cd  0.45286479  0.68174743  0.82666273     1.59900
O267        O  0.55021185  0.59907448  0.87665200    -0.80000
O268        O  0.41074342  0.70925666  0.86191097    -0.78600
C269        C  0.50141806  0.67461970  0.97443282     0.83900
C270        C  0.58361579  0.73979412  0.88305340     0.83600
O271        O  0.45089325  0.75523027  0.88785640    -0.77600
C272        C  0.50031218  0.72778659  0.76131661     0.84400
O273        O  0.50172800  0.70779271  0.95575428    -0.77700
C274        C  0.57358421  0.59834511  0.84657527     0.84500
C275        C  0.42801210  0.59849958  0.84662416     0.84800
O276        O  0.45140166  0.59910268  0.87670276    -0.80100
O277        O  0.73949867  0.60284726  0.04524677    -0.77600
C278        C  0.75630971  0.60673282  0.91327287     0.83400
O279        O  0.85369942  0.53536233  0.99558358    -0.78700
O280        O  0.86999803  0.67278395  0.92546820    -0.80200
O281        O  0.77822291  0.71477066  0.02969056    -0.80000
O282        O  0.78523704  0.62851594  0.08588083    -0.78600
Zn283      Zn  0.77123262  0.59408798  0.99593100     1.55700
O284        O  0.77824108  0.71492728  0.96276952    -0.80000
Cd285      Cd  0.81268350  0.66411050  0.04391619     1.59700
Cd286      Cd  0.86381481  0.59758741  0.99609819     1.59600
O287        O  0.86957580  0.67176220  0.06751122    -0.80000
O288        O  0.81546827  0.62977883  0.99629000    -1.90500
Cd289      Cd  0.81310963  0.66452661  0.94876239     1.59900
O290        O  0.89541433  0.61418380  0.04552606    -0.80000
O291        O  0.78644278  0.62867265  0.90662988    -0.78600
C292        C  0.82076840  0.51610838  0.99506077     0.83900
C293        C  0.75553060  0.60590640  0.07946446     0.83600
O294        O  0.73953631  0.60539797  0.94722412    -0.77600
C295        C  0.76649448  0.72930577  0.99625264     0.84400
O296        O  0.78746256  0.53468119  0.99487695    -0.77700
C297        C  0.89602940  0.64430569  0.06874037     0.84500
C298        C  0.89643974  0.64534328  0.92409736     0.84800
O299        O  0.89572376  0.61503445  0.94708922    -0.80100
O300        O  0.73971025  0.38268188  0.94636287    -0.77600
C301        C  0.75594392  0.38135740  0.07939291     0.83400
O302        O  0.85396879  0.45241181  0.99559635    -0.78700
O303        O  0.87040478  0.31594532  0.06715218    -0.80200
O304        O  0.77915604  0.27279445  0.96275710    -0.80000
O305        O  0.78661993  0.35835945  0.90627568    -0.78600
Zn306      Zn  0.77148860  0.39339139  0.99543962     1.55700
O307        O  0.77904323  0.27302341  0.02965891    -0.80000
Cd308      Cd  0.81389063  0.32315032  0.94853620     1.59700
Cd309      Cd  0.86440792  0.39022466  0.99581787     1.59600
O310        O  0.87085582  0.31519072  0.92520236    -0.80000
O311        O  0.81603312  0.35798668  0.99589753    -1.90500
Cd312      Cd  0.81352707  0.32362348  0.04350158     1.59900
O313        O  0.89624231  0.37313480  0.94667654    -0.80000
O314        O  0.78582968  0.35887550  0.08541008    -0.78600
C315        C  0.82092053  0.47147312  0.99496626     0.83900
C316        C  0.75624733  0.38015966  0.91232546     0.83600
O317        O  0.73995903  0.38512499  0.04518208    -0.77600
C318        C  0.76728286  0.25853919  0.99624766     0.84400
O319        O  0.78772915  0.45271896  0.99452514    -0.77700
C320        C  0.89715237  0.34277870  0.92377801     0.84500
C321        C  0.89700232  0.34326466  0.06826228     0.84800
O322        O  0.89640874  0.37339374  0.04502971    -0.80100
O323        O  0.75968265  0.54212551  0.10457280    -0.77600
C324        C  0.74408384  0.40998621  0.10930184     0.83400
O325        O  0.64519114  0.49242444  0.03852219    -0.78700
O326        O  0.62998377  0.42171603  0.17543559    -0.80200
O327        O  0.72118166  0.52667922  0.21775931    -0.80000
O328        O  0.71447175  0.58255186  0.13153861    -0.78600
Zn329      Zn  0.72815283  0.49256738  0.09692762     1.55700
O330        O  0.72177516  0.45984969  0.21763596    -0.80000
Cd331      Cd  0.68671480  0.54078170  0.16706111     1.59700
Cd332      Cd  0.63526283  0.49328351  0.10084270     1.59600
O333        O  0.62996317  0.56500002  0.17470309    -0.80000
O334        O  0.68392119  0.49309682  0.13277556    -1.90500
Cd335      Cd  0.68680316  0.44544938  0.16723771     1.59900
O336        O  0.60372230  0.54289922  0.11730380    -0.80000
O337        O  0.71390351  0.40352369  0.13128495    -0.78600
C338        C  0.67813688  0.49146968  0.01928739     0.83900
C339        C  0.74393689  0.57633616  0.10852633     0.83600
O340        O  0.76048957  0.44403398  0.10732325    -0.77600
C341        C  0.73325614  0.49335051  0.23213224     0.84400
O342        O  0.71142280  0.49109502  0.03786113    -0.77700
C343        C  0.60336311  0.56627944  0.14733382     0.84500
C344        C  0.60310609  0.42091875  0.14832221     0.84800
O345        O  0.60339441  0.44442611  0.11839830    -0.80100
O346        O  0.76081945  0.44348313  0.88584050    -0.77600
C347        C  0.74484665  0.57623858  0.88522698     0.83400
O348        O  0.64533548  0.49318093  0.95535084    -0.78700
O349        O  0.63096715  0.56595326  0.81936761    -0.80200
O350        O  0.72090170  0.45986016  0.77548624    -0.80000
O351        O  0.71402107  0.40350786  0.86127248    -0.78600
Zn352      Zn  0.72848893  0.49199343  0.89709271     1.55700
O353        O  0.72115413  0.52664090  0.77554320    -0.80000
Cd354      Cd  0.68653982  0.44584738  0.82626644     1.59700
Cd355      Cd  0.63560077  0.49386577  0.89303412     1.59600
O356        O  0.62956877  0.42254632  0.81848420    -0.80000
O357        O  0.68433335  0.49326510  0.86108865    -1.90500
Cd358      Cd  0.68738772  0.54080440  0.82658291     1.59900
O359        O  0.60334257  0.44511737  0.87572589    -0.80000
O360        O  0.71602873  0.58228068  0.86138038    -0.78600
C361        C  0.67819327  0.49137046  0.97465253     0.83900
C362        C  0.74442046  0.40946295  0.88309396     0.83600
O363        O  0.75983197  0.54190184  0.89092757    -0.77600
C364        C  0.73267676  0.49323130  0.76098438     0.84400
O365        O  0.71149112  0.49002392  0.95613850    -0.77700
C366        C  0.60281505  0.42175280  0.84569501     0.84500
C367        C  0.60422722  0.56721187  0.84659500     0.84800
O368        O  0.60432563  0.54365702  0.87650008    -0.80100
O369        O  0.04839913  0.73490681  0.60452401    -0.77600
C370        C  0.91533578  0.74999009  0.60930509     0.83400
O371        O  0.99940185  0.84817686  0.53715138    -0.78700
O372        O  0.92825384  0.86472869  0.67392726    -0.80200
O373        O  0.03224676  0.77328077  0.71742548    -0.80000
O374        O  0.08839355  0.78044431  0.63172405    -0.78600
Zn375      Zn  0.99844494  0.76586617  0.59619666     1.55700
O376        O  0.96530088  0.77287622  0.71703241    -0.80000
Cd377      Cd  0.04628563  0.80794330  0.66681863     1.59700
Cd378      Cd  0.99954337  0.85839712  0.59943870     1.59600
O379        O  0.07013950  0.86478115  0.67444479    -0.80000
O380        O  0.99894434  0.81014397  0.63183589    -1.90500
Cd381      Cd  0.95136194  0.80770887  0.66640693     1.59900
O382        O  0.04884844  0.89019185  0.61637335    -0.80000
O383        O  0.90923027  0.78034756  0.63103072    -0.78600
C384        C  0.99826441  0.81526998  0.51801995     0.83900
C385        C  0.08255510  0.75090499  0.60881255     0.83600
O386        O  0.94950035  0.73370782  0.60665058    -0.77600
C387        C  0.99876832  0.76119940  0.73161123     0.84400
O388        O  0.99738889  0.78215472  0.53676752    -0.77700
C389        C  0.07168605  0.89107801  0.64684781     0.84500
C390        C  0.92745037  0.89132019  0.64658420     0.84800
O391        O  0.95062919  0.89053563  0.61637280    -0.80100
O392        O  0.94996587  0.73371511  0.38399894    -0.77600
C393        C  0.08248696  0.75042879  0.38401896     0.83400
O394        O  0.99962403  0.84806730  0.45409360    -0.78700
O395        O  0.07100982  0.86379346  0.31706290    -0.80200
O396        O  0.96549398  0.77237230  0.27518565    -0.80000
O397        O  0.90950798  0.78100584  0.36153947    -0.78600
Zn398      Zn  0.99866488  0.76573477  0.39529984     1.55700
O399        O  0.03250943  0.77204100  0.27507701    -0.80000
Cd400      Cd  0.95159847  0.80771119  0.32538891     1.59700
Cd401      Cd  0.99983785  0.85835227  0.39180834     1.59600
O402        O  0.92860366  0.86472235  0.31719326    -0.80000
O403        O  0.99939806  0.81004913  0.35971322    -1.90500
Cd404      Cd  0.04707202  0.80709352  0.32525695     1.59900
O405        O  0.95092774  0.89061635  0.37468025    -0.80000
O406        O  0.08893122  0.77996060  0.36124243    -0.78600
C407        C  0.99831090  0.81520180  0.47332399     0.83900
C408        C  0.91595584  0.75041717  0.38285739     0.83600
O409        O  0.04827321  0.73433836  0.38703409    -0.77600
C410        C  0.99891730  0.76027571  0.26084375     0.84400
O411        O  0.99734153  0.78201755  0.45469730    -0.77700
C412        C  0.92772358  0.89135907  0.34447313     0.84500
C413        C  0.07235559  0.89031905  0.34444203     0.84800
O414        O  0.04928213  0.88974151  0.37473932    -0.80100
O415        O  0.11084462  0.75576379  0.54626046    -0.77600
C416        C  0.11156494  0.73896345  0.41368561     0.83400
O417        O  0.04117457  0.64103137  0.49749348    -0.78700
O418        O  0.17768319  0.62514524  0.42593607    -0.80200
O419        O  0.22065846  0.71622770  0.53053568    -0.80000
O420        O  0.13454511  0.70912869  0.58686695    -0.78600
Zn421      Zn  0.09975268  0.72363803  0.49765189     1.55700
O422        O  0.22050353  0.71615934  0.46360748    -0.80000
Cd423      Cd  0.17007946  0.68175618  0.54488672     1.59700
Cd424      Cd  0.10338482  0.63089319  0.49729393     1.59600
O425        O  0.17797790  0.62495064  0.56843894    -0.80000
O426        O  0.13541854  0.67932045  0.49730666    -1.90500
Cd427      Cd  0.16979123  0.68186190  0.44963181     1.59900
O428        O  0.12040025  0.59896071  0.54637786    -0.80000
O429        O  0.13436750  0.70936800  0.40763159    -0.78600
C430        C  0.02188259  0.67385105  0.49833947     0.83900
C431        C  0.11271983  0.73934035  0.58035757     0.83600
O432        O  0.10777788  0.75492054  0.44786361    -0.77600
C433        C  0.23503181  0.72789960  0.49701447     0.84400
O434        O  0.04041219  0.70710966  0.49892532    -0.77700
C435        C  0.15067339  0.59832010  0.56949577     0.84500
C436        C  0.15041194  0.59849624  0.42482304     0.84800
O437        O  0.12018745  0.59902086  0.44802511    -0.80100
O438        O  0.89193352  0.75413834  0.44734990    -0.77600
C439        C  0.88590318  0.73790033  0.58023534     0.83400
O440        O  0.95822220  0.64061162  0.49698856    -0.78700
O441        O  0.82121031  0.62299908  0.56740256    -0.80200
O442        O  0.77898326  0.71581522  0.46344943    -0.80000
O443        O  0.86485530  0.70877363  0.40717412    -0.78600
Zn444      Zn  0.89910612  0.72283523  0.49738171     1.55700
O445        O  0.77855277  0.71503076  0.53036135    -0.80000
Cd446      Cd  0.82943087  0.68111381  0.44910361     1.59700
Cd447      Cd  0.89602797  0.62998686  0.49674663     1.59600
O448        O  0.82152906  0.62436987  0.42538005    -0.80000
O449        O  0.86376051  0.67825899  0.49673069    -1.90500
Cd450      Cd  0.82901374  0.68005465  0.54421004     1.59900
O451        O  0.87914512  0.59840019  0.44743787    -0.80000
O452        O  0.86457410  0.70722738  0.58629746    -0.78600
C453        C  0.97722188  0.67360863  0.49823535     0.83900
C454        C  0.88763583  0.73842784  0.41309897     0.83600
O455        O  0.88782375  0.75461740  0.54626322    -0.77600
C456        C  0.76444615  0.72733250  0.49694901     0.84400
O457        O  0.95839942  0.70666849  0.49904469    -0.77700
C458        C  0.84889889  0.59780598  0.42426963     0.84500
C459        C  0.84876630  0.59662903  0.56865437     0.84800
O460        O  0.87918580  0.59762582  0.54572761    -0.80100
O461        O  0.74028693  0.94532425  0.60480059    -0.77600
C462        C  0.75594995  0.07794954  0.60853914     0.83400
O463        O  0.85485989  0.99470054  0.53710024    -0.78700
O464        O  0.87041115  0.06623571  0.67373997    -0.80200
O465        O  0.77937799  0.96140075  0.71731086    -0.80000
O466        O  0.78604154  0.90528840  0.63142941    -0.78600
Zn467      Zn  0.77198549  0.99463537  0.59575598     1.55700
O468        O  0.77951181  0.02816896  0.71730677    -0.80000
Cd469      Cd  0.81365511  0.94742862  0.66642919     1.59700
Cd470      Cd  0.86475841  0.99482654  0.59944146     1.59600
O471        O  0.87043115  0.92371144  0.67407515    -0.80000
O472        O  0.81619065  0.99478647  0.63162943    -1.90500
Cd473      Cd  0.81364026  0.04221699  0.66631021     1.59900
O474        O  0.89650619  0.94564649  0.61649886    -0.80000
O475        O  0.78573438  0.08409943  0.63115286    -0.78600
C476        C  0.82189968  0.99467480  0.51788033     0.83900
C477        C  0.75625177  0.91120520  0.60876990     0.83600
O478        O  0.74006250  0.04376325  0.60484689    -0.77600
C479        C  0.76777313  0.99480198  0.73185997     0.84400
O480        O  0.78863751  0.99467850  0.53651549    -0.77700
C481        C  0.89694760  0.92242414  0.64665653     0.84500
C482        C  0.89694720  0.06743018  0.64632405     0.84800
O483        O  0.89646088  0.04412511  0.61624512    -0.80100
O484        O  0.73961929  0.04343900  0.38634985    -0.77600
C485        C  0.75631161  0.91144162  0.38358982     0.83400
O486        O  0.85477234  0.99478031  0.45392156    -0.78700
O487        O  0.87030005  0.92345403  0.31720766    -0.80200
O488        O  0.77851122  0.02806274  0.27473241    -0.80000
O489        O  0.78537629  0.08415795  0.36097969    -0.78600
Zn490      Zn  0.77180778  0.99455086  0.39549748     1.55700
O491        O  0.77863629  0.96122408  0.27490681    -0.80000
Cd492      Cd  0.81302737  0.04240634  0.32531002     1.59700
Cd493      Cd  0.86471844  0.99477233  0.39158356     1.59600
O494        O  0.86970209  0.06649578  0.31733616    -0.80000
O495        O  0.81606334  0.99473481  0.35968669    -1.90500
Cd496      Cd  0.81342335  0.94703315  0.32538116     1.59900
O497        O  0.89626180  0.04402273  0.37447291    -0.80000
O498        O  0.78629201  0.90505928  0.36130207    -0.78600
C499        C  0.82184250  0.99464989  0.47321625     0.83900
C500        C  0.75554118  0.07765692  0.38342659     0.83600
O501        O  0.73999075  0.94550320  0.38602098    -0.77600
C502        C  0.76682499  0.99459215  0.26038464     0.84400
O503        O  0.78851698  0.99451181  0.45467849    -0.77700
C504        C  0.89651738  0.06746879  0.34449776     0.84500
C505        C  0.89705001  0.92236920  0.34442736     0.84800
O506        O  0.89665884  0.94567280  0.37451161    -0.80100
O507        O  0.75965733  0.10309133  0.44720649    -0.77600
C508        C  0.74410116  0.10759750  0.57966897     0.83400
O509        O  0.64546202  0.03597762  0.49684635    -0.78700
O510        O  0.62954352  0.17256714  0.56824058    -0.80200
O511        O  0.72097288  0.21530120  0.46263666    -0.80000
O512        O  0.71390937  0.12918850  0.40680349    -0.78600
Zn513      Zn  0.72810511  0.09475367  0.49679005     1.55700
O514        O  0.72099812  0.21543192  0.52956655    -0.80000
Cd515      Cd  0.68631443  0.16466031  0.44870847     1.59700
Cd516      Cd  0.63512260  0.09822108  0.49659284     1.59600
O517        O  0.62947449  0.17220795  0.42466313    -0.80000
O518        O  0.68365188  0.13034958  0.49649627    -1.90500
Cd519      Cd  0.68632804  0.16495028  0.54408631     1.59900
O520        O  0.60325272  0.11500015  0.44716517    -0.80000
O521        O  0.71393821  0.12956869  0.58608336    -0.78600
C522        C  0.67847110  0.01684625  0.49754683     0.83900
C523        C  0.74370136  0.10662969  0.41298719     0.83600
O524        O  0.76034222  0.10522189  0.54550308    -0.77600
C525        C  0.73279360  0.22977526  0.49605803     0.84400
O526        O  0.71170783  0.03551871  0.49787483    -0.77700
C527        C  0.60282220  0.14491718  0.42364060     0.84500
C528        C  0.60293980  0.14523630  0.56939485     0.84800
O529        O  0.60338922  0.11524680  0.54597992    -0.80100
O530        O  0.76087435  0.88344969  0.54600745    -0.77600
C531        C  0.74465799  0.88269522  0.41347797     0.83400
O532        O  0.64570009  0.95291603  0.49653257    -0.78700
O533        O  0.63065946  0.81632348  0.42516772    -0.80200
O534        O  0.72138378  0.77333690  0.53048599    -0.80000
O535        O  0.71426447  0.85946665  0.58657514    -0.78600
Zn536      Zn  0.72862197  0.89453204  0.49744955     1.55700
O537        O  0.72174957  0.77364339  0.46357394    -0.80000
Cd538      Cd  0.68683309  0.82402692  0.54453014     1.59700
Cd539      Cd  0.63576511  0.89063006  0.49666068     1.59600
O540        O  0.62988794  0.81636933  0.56818720    -0.80000
O541        O  0.68441250  0.85866587  0.49688724    -1.90500
Cd542      Cd  0.68741315  0.82427729  0.44925691     1.59900
O543        O  0.60375991  0.87367512  0.54584126    -0.80000
O544        O  0.71527925  0.85957599  0.40733038    -0.78600
C545        C  0.67859110  0.97221930  0.49770089     0.83900
C546        C  0.74450773  0.88133215  0.58012774     0.83600
O547        O  0.76022017  0.88703916  0.44779000    -0.77600
C548        C  0.73325926  0.75899946  0.49702408     0.84400
O549        O  0.71190900  0.95371267  0.49872231    -0.77700
C550        C  0.60321369  0.84362352  0.56917816     0.84500
C551        C  0.60376287  0.84335658  0.42412222     0.84800
O552        O  0.60404756  0.87341622  0.44742861    -0.80100
O553        O  0.60817100  0.94507727  0.25589462    -0.77600
C554        C  0.61333994  0.07759656  0.23920308     0.83400
O555        O  0.54161028  0.99456079  0.14193683    -0.78700
O556        O  0.67874541  0.06464231  0.12480981    -0.80200
O557        O  0.72109988  0.96097103  0.21728338    -0.80000
O558        O  0.63534835  0.90474464  0.21072303    -0.78600
Zn559      Zn  0.60056774  0.99482888  0.22436762     1.55700
O560        O  0.72112772  0.02777603  0.21677449    -0.80000
Cd561      Cd  0.67052892  0.94663045  0.18286422     1.59700
Cd562      Cd  0.60386292  0.99404939  0.13148562     1.59600
O563        O  0.67836616  0.92261357  0.12629526    -0.80000
O564        O  0.63604234  0.99411230  0.17987567    -1.90500
Cd565      Cd  0.67066257  0.04158033  0.18180174     1.59900
O566        O  0.62075779  0.94458599  0.10020464    -0.80000
O567        O  0.63485139  0.08368707  0.20861998    -0.78600
C568        C  0.52249887  0.99578510  0.17492622     0.83900
C569        C  0.61248047  0.91081806  0.24031205     0.83600
O570        O  0.61163527  0.04373783  0.25607449    -0.77600
C571        C  0.73549196  0.99444558  0.22886380     0.84400
O572        O  0.54123465  0.99641355  0.20810234    -0.77700
C573        C  0.65092900  0.92134875  0.09978628     0.84500
C574        C  0.65116602  0.06601756  0.09845622     0.84800
O575        O  0.62082014  0.04301661  0.09925236    -0.80100
O576        O  0.38760782  0.04377652  0.25634397    -0.77600
C577        C  0.38838809  0.91160875  0.23997929     0.83400
O578        O  0.45862431  0.99505757  0.14206659    -0.78700
O579        O  0.32215605  0.92348321  0.12603170    -0.80200
O580        O  0.27865409  0.02744108  0.21692832    -0.80000
O581        O  0.36433436  0.08412803  0.20928726    -0.78600
Zn582      Zn  0.39965537  0.99535909  0.22446721     1.55700
O583        O  0.27949118  0.96064992  0.21741645    -0.80000
Cd584      Cd  0.32905587  0.04184463  0.18218922     1.59700
Cd585      Cd  0.39640438  0.99477910  0.13171455     1.59600
O586        O  0.32101468  0.06499760  0.12525163    -0.80000
O587        O  0.36418734  0.99468696  0.18003461    -1.90500
Cd588      Cd  0.33012554  0.94699110  0.18277345     1.59900
O589        O  0.37920307  0.04378264  0.09989295    -0.80000
O590        O  0.36593458  0.90531567  0.21012551    -0.78600
C591        C  0.47781145  0.99603668  0.17500945     0.83900
C592        C  0.38599005  0.07771736  0.23968665     0.83600
O593        O  0.39167850  0.94578110  0.25594293    -0.77600
C594        C  0.26466409  0.99394388  0.22897182     0.84400
O595        O  0.45914611  0.99681711  0.20824995    -0.77700
C596        C  0.34867852  0.06652737  0.09898978     0.84500
C597        C  0.34946212  0.92237038  0.09939238     0.84800
O598        O  0.37967481  0.94555784  0.09988355    -0.80100
O599        O  0.45054236  0.10122093  0.23578275    -0.77600
C600        C  0.58357750  0.10642029  0.25105493     0.83400
O601        O  0.49990370  0.03531177  0.35031682    -0.78700
O602        O  0.57130314  0.17170143  0.36564035    -0.80200
O603        O  0.46619042  0.21465974  0.27450798    -0.80000
O604        O  0.41023987  0.12911872  0.28066467    -0.78600
Zn605      Zn  0.50033450  0.09348080  0.26721609     1.55700
O606        O  0.53316706  0.21441421  0.27434437    -0.80000
Cd607      Cd  0.45215492  0.16400366  0.30868192     1.59700
Cd608      Cd  0.49957725  0.09759466  0.36009438     1.59600
O609        O  0.42772463  0.17176392  0.36526137    -0.80000
O610        O  0.49981923  0.12940290  0.31138078    -1.90500
Cd611      Cd  0.54747674  0.16385297  0.30878818     1.59900
O612        O  0.45014628  0.11466558  0.39170599    -0.80000
O613        O  0.58957748  0.12862554  0.28111531    -0.78600
C614        C  0.50087425  0.01601292  0.31745930     0.83900
C615        C  0.41623225  0.10599647  0.25131313     0.83600
O616        O  0.54937286  0.10308951  0.23495052    -0.77600
C617        C  0.49968790  0.22897915  0.26272924     0.84400
O618        O  0.50140962  0.03449236  0.28416579    -0.77700
C619        C  0.42672866  0.14466133  0.39206761     0.84500
C620        C  0.57209854  0.14470900  0.39257833     0.84800
O621        O  0.54866044  0.11472897  0.39219850    -0.80100
O622        O  0.54979337  0.88274941  0.23580452    -0.77600
C623        C  0.41749783  0.88223807  0.25193405     0.83400
O624        O  0.50019173  0.95227198  0.35050399    -0.78700
O625        O  0.42842560  0.81594659  0.36593698    -0.80200
O626        O  0.53383908  0.77305468  0.27519757    -0.80000
O627        O  0.59038329  0.85907610  0.28249622    -0.78600
Zn628      Zn  0.50110453  0.89359311  0.26788007     1.55700
O629        O  0.46682535  0.77354270  0.27461603    -0.80000
Cd630      Cd  0.54820146  0.82352208  0.30983581     1.59700
Cd631      Cd  0.50024907  0.89007878  0.36070138     1.59600
O632        O  0.57184526  0.81576833  0.36673837    -0.80000
O633        O  0.50050194  0.85803819  0.31225737    -1.90500
Cd634      Cd  0.45259383  0.82395669  0.30927472     1.59900
O635        O  0.54949162  0.87316106  0.39262706    -0.80000
O636        O  0.41094369  0.85980894  0.28171862    -0.78600
C637        C  0.50110715  0.97142068  0.31754859     0.83900
C638        C  0.58391994  0.88084830  0.25220678     0.83600
O639        O  0.45180246  0.88520763  0.23603685    -0.77600
C640        C  0.50032475  0.75890523  0.26313733     0.84400
O641        O  0.50196073  0.95279560  0.28432752    -0.77700
C642        C  0.57286831  0.84313880  0.39327119     0.84500
C643        C  0.42747331  0.84303343  0.39275383     0.84800
O644        O  0.45090494  0.87301976  0.39239141    -0.80100
O645        O  0.61229297  0.25476337  0.04603372    -0.77600
C646        C  0.61211724  0.23877971  0.91350321     0.83400
O647        O  0.54154599  0.14075915  0.99630075    -0.78700
O648        O  0.67856744  0.12489905  0.92512006    -0.80200
O649        O  0.72157499  0.21518465  0.02976550    -0.80000
O650        O  0.63538673  0.20755386  0.08627051    -0.78600
Zn651      Zn  0.60057503  0.22302108  0.99733441     1.55700
O652        O  0.72106514  0.21586613  0.96284944    -0.80000
Cd653      Cd  0.67092827  0.18054758  0.04392237     1.59700
Cd654      Cd  0.60380175  0.13044411  0.99610964     1.59600
O655        O  0.67867096  0.12339295  0.06668360    -0.80000
O656        O  0.63610008  0.17866993  0.99647487    -1.90500
Cd657      Cd  0.67042180  0.18153928  0.94877719     1.59900
O658        O  0.62063260  0.09811471  0.04497875    -0.80000
O659        O  0.63473911  0.20912649  0.90703826    -0.78600
C660        C  0.52235177  0.17362882  0.99773150     0.83900
C661        C  0.61381511  0.23801065  0.07997964     0.83600
O662        O  0.60880603  0.25458262  0.94779544    -0.77600
C663        C  0.73577339  0.22725086  0.99629851     0.84400
O664        O  0.54103862  0.20680125  0.99877204    -0.77700
C665        C  0.65108865  0.09704589  0.06784156     0.84500
C666        C  0.65127709  0.09827985  0.92389406     0.84800
O667        O  0.62089043  0.09885322  0.94687062    -0.75300
O668        O  0.39127194  0.25420943  0.94772794    -0.77600
C669        C  0.38640523  0.23789741  0.08021441     0.83400
O670        O  0.45851684  0.14059372  0.99663648    -0.78700
O671        O  0.32106354  0.12369078  0.06697739    -0.80200
O672        O  0.27893353  0.21581712  0.96300562    -0.80000
O673        O  0.36497473  0.20861295  0.90729682    -0.78600
Zn674      Zn  0.39940891  0.22277779  0.99736376     1.55700
O675        O  0.27889777  0.21582707  0.02991468    -0.80000
Cd676      Cd  0.32943771  0.18095865  0.94899129     1.59700
Cd677      Cd  0.39622681  0.13013248  0.99627435     1.59600
O678        O  0.32178360  0.12419707  0.92504890    -0.80000
O679        O  0.36391990  0.17836982  0.99655835    -1.90500
Cd680      Cd  0.32915623  0.18064292  0.04400277     1.59900
O681        O  0.37950446  0.09834443  0.94691825    -0.80000
O682        O  0.36478135  0.20744740  0.08630778    -0.78600
C683        C  0.47763202  0.17353516  0.99777786     0.83900
C684        C  0.38750493  0.23839371  0.91347943     0.83600
O685        O  0.38837405  0.25458664  0.04624740    -0.77600
C686        C  0.26461887  0.22777968  0.99644568     0.84400
O687        O  0.45886485  0.20664148  0.99860474    -0.77700
C688        C  0.34922848  0.09770589  0.92378331     0.84500
C689        C  0.34863898  0.09735423  0.06822654     0.84800
O690        O  0.37904332  0.09822723  0.04527675    -0.80100
O691        O  0.54931585  0.23397336  0.10397130    -0.77600
C692        C  0.41606817  0.24971503  0.10917122     0.83400
O693        O  0.50000204  0.34835158  0.03822441    -0.78700
O694        O  0.42839645  0.36409912  0.17475926    -0.80200
O695        O  0.53321764  0.27206643  0.21703364    -0.80000
O696        O  0.58950682  0.27914138  0.13140133    -0.78600
Zn697      Zn  0.49942179  0.26541643  0.09640280     1.55700
O698        O  0.46623021  0.27250802  0.21723851    -0.80000
Cd699      Cd  0.54742586  0.30665247  0.16669821     1.59700
Cd700      Cd  0.49985315  0.35818117  0.10051213     1.59600
O701        O  0.57131971  0.36320064  0.17513804    -0.80000
O702        O  0.49974343  0.30956557  0.13226434    -1.90500
Cd703      Cd  0.45209013  0.30724314  0.16677906     1.59900
O704        O  0.54900964  0.38977859  0.11797467    -0.80000
O705        O  0.41006917  0.27981076  0.13130079    -0.78600
C706        C  0.49913678  0.31553189  0.01893055     0.83900
C707        C  0.58359236  0.24967196  0.10841559     0.83600
O708        O  0.45022062  0.23347375  0.10603899    -0.77600
C709        C  0.49970612  0.26047455  0.23148646     0.84400
O710        O  0.49850521  0.28229960  0.03742087    -0.77700
C711        C  0.57230048  0.39007509  0.14811333     0.84500
C712        C  0.42744753  0.39082569  0.14756023     0.84800
O713        O  0.45068869  0.39020076  0.11738994    -0.80100
O714        O  0.45029286  0.23407749  0.88556092    -0.77600
C715        C  0.58273931  0.25055939  0.88428309     0.83400
O716        O  0.49989333  0.34854578  0.95522873    -0.78700
O717        O  0.57067796  0.36447455  0.81841893    -0.80200
O718        O  0.46554951  0.27318708  0.77592798    -0.80000
O719        O  0.40969738  0.28088474  0.86216950    -0.78600
Zn720      Zn  0.49904129  0.26611942  0.89631408     1.55700
O721        O  0.53253582  0.27306084  0.77584459    -0.80000
Cd722      Cd  0.45164622  0.30812221  0.82645678     1.59700
Cd723      Cd  0.49962963  0.35874509  0.89309334     1.59600
O724        O  0.42831002  0.36509193  0.81889408    -0.80000
O725        O  0.49937596  0.31046200  0.86085068    -1.90500
Cd726      Cd  0.54692801  0.30774002  0.82628941     1.59900
O727        O  0.45048184  0.39077589  0.87653599    -0.80000
O728        O  0.58900815  0.28029136  0.86172710    -0.78600
C729        C  0.49903876  0.31562158  0.97432166     0.83900
C730        C  0.41615700  0.25045857  0.88369693     0.83600
O731        O  0.54849607  0.23460689  0.88763094    -0.77600
C732        C  0.49900829  0.26125011  0.76152786     0.84400
O733        O  0.49826177  0.28247635  0.95562500    -0.77700
C734        C  0.42731594  0.39157881  0.84631977     0.84500
C735        C  0.57190039  0.39102921  0.84576062     0.84800
O736        O  0.54877489  0.39047734  0.87600822    -0.80100
O737        O  0.26035097  0.38726634  0.04526143    -0.77600
C738        C  0.24401756  0.38226365  0.91280022     0.83400
O739        O  0.14526831  0.45309923  0.99606682    -0.78700
O740        O  0.13011327  0.31632029  0.92489104    -0.80200
O741        O  0.22193136  0.27415460  0.02985780    -0.80000
O742        O  0.21522040  0.36033950  0.08582192    -0.78600
Zn743      Zn  0.22839012  0.39502743  0.99588465     1.55700
O744        O  0.22158532  0.27382647  0.96293995    -0.80000
Cd745      Cd  0.18748364  0.32482963  0.04405651     1.59700
Cd746      Cd  0.13558433  0.39083843  0.99623321     1.59600
O747        O  0.13081378  0.31709059  0.06834536    -0.80000
O748        O  0.18432718  0.35903026  0.99630086    -1.90500
Cd749      Cd  0.18690699  0.32436155  0.94874635     1.59900
O750        O  0.10398202  0.37392163  0.04561463    -0.80000
O751        O  0.21411719  0.35985913  0.90659890    -0.78600
C752        C  0.17816392  0.47240442  0.99556653     0.83900
C753        C  0.24467321  0.38331346  0.07956447     0.83600
O754        O  0.26029373  0.38520047  0.94690889    -0.77600
C755        C  0.23346103  0.25949981  0.99641521     0.84400
O756        O  0.21149049  0.45395359  0.99519263    -0.77700
C757        C  0.10387031  0.34408664  0.06922131     0.84500
C758        C  0.10343954  0.34355639  0.92370202     0.84800
O759        O  0.10384052  0.37361814  0.94700835    -0.80100
O760        O  0.25999323  0.60471263  0.94729498    -0.77600
C761        C  0.24439306  0.60706872  0.07979461     0.83400
O762        O  0.14513122  0.53610746  0.99603085    -0.78700
O763        O  0.12940398  0.67158910  0.06857531    -0.80200
O764        O  0.22077925  0.71576162  0.96306273    -0.80000
O765        O  0.21377863  0.62973854  0.90684357    -0.78600
Zn766      Zn  0.22800290  0.59470192  0.99619099     1.55700
O767        O  0.22057065  0.71587240  0.02997946    -0.80000
Cd768      Cd  0.18625688  0.66507971  0.94889978     1.59700
Cd769      Cd  0.13518694  0.59824576  0.99632536     1.59600
O770        O  0.12940933  0.67266110  0.92493499    -0.80000
O771        O  0.18371744  0.63046596  0.99653866    -1.90500
Cd772      Cd  0.18636344  0.66486548  0.04423060     1.59900
O773        O  0.10343999  0.61520856  0.94705521    -0.80000
O774        O  0.21472370  0.62978880  0.08601462    -0.78600
C775        C  0.17809827  0.51696431  0.99563761     0.83900
C776        C  0.24379661  0.60752646  0.91314198     0.83600
O777        O  0.25996313  0.60301269  0.04546283    -0.77600
C778        C  0.23243813  0.73028991  0.99652368     0.84400
O779        O  0.21135909  0.53558020  0.99547965    -0.77700
C780        C  0.10287400  0.64527484  0.92375384     0.84500
C781        C  0.10267698  0.64433177  0.06930204     0.84800
O782        O  0.10314190  0.61459318  0.04560585    -0.80100
O783        O  0.24003334  0.44623988  0.10682559    -0.77600
C784        C  0.25635059  0.57835024  0.10956460     0.83400
O785        O  0.35425710  0.49456481  0.03845480    -0.78700
O786        O  0.37085712  0.56617235  0.17485292    -0.80200
O787        O  0.27869530  0.46201589  0.21780646    -0.80000
O788        O  0.28632786  0.40577914  0.13158229    -0.78600
Zn789      Zn  0.27185117  0.49529015  0.09740500     1.55700
O790        O  0.27892337  0.52884539  0.21780117    -0.80000
Cd791      Cd  0.31362742  0.44756634  0.16741046     1.59700
Cd792      Cd  0.36478943  0.49465780  0.10067421     1.59600
O793        O  0.37038160  0.42339679  0.17524474    -0.80000
O794        O  0.31637631  0.49509778  0.13290046    -1.90500
Cd795      Cd  0.31384230  0.54279030  0.16723175     1.59900
O796        O  0.39637265  0.44522981  0.11761365    -0.80000
O797        O  0.28660110  0.58474689  0.13147307    -0.78600
C798        C  0.32122368  0.49488730  0.01933279     0.83900
C799        C  0.25636282  0.41217718  0.10929302     0.83600
O800        O  0.24000670  0.54427912  0.10734871    -0.77600
C801        C  0.26694298  0.49547134  0.23218883     0.84400
O802        O  0.28799762  0.49529706  0.03803737    -0.77700
C803        C  0.39685215  0.42197291  0.14775159     0.84500
C804        C  0.39742536  0.56714331  0.14743941     0.84800
O805        O  0.39682793  0.54378984  0.11739538    -0.80100
O806        O  0.23963420  0.54397626  0.88737905    -0.77600
C807        C  0.25568195  0.41162006  0.88357939     0.83400
O808        O  0.35414028  0.49502507  0.95549876    -0.78700
O809        O  0.37021212  0.42389453  0.81882151    -0.80200
O810        O  0.27920682  0.52857205  0.77566266    -0.80000
O811        O  0.28557893  0.58438440  0.86168375    -0.78600
Zn812      Zn  0.27144162  0.49478989  0.89662924     1.55700
O813        O  0.27907101  0.46178145  0.77572514    -0.80000
Cd814      Cd  0.31355430  0.54262041  0.82651854     1.59700
Cd815      Cd  0.36447695  0.49512559  0.89331162     1.59600
O816        O  0.37044865  0.56665348  0.81930284    -0.80000
O817        O  0.31596569  0.49510029  0.86109062    -1.90500
Cd818      Cd  0.31344787  0.44767397  0.82641135     1.59900
O819        O  0.39654241  0.54435546  0.87671482    -0.80000
O820        O  0.28578583  0.40555238  0.86140516    -0.78600
C821        C  0.32115449  0.49481356  0.97467427     0.83900
C822        C  0.25561993  0.57814863  0.88403149     0.83600
O823        O  0.23951938  0.44571901  0.88673631    -0.77600
C824        C  0.26738098  0.49518105  0.76123639     0.84400
O825        O  0.28787870  0.49459448  0.95602311    -0.77700
C826        C  0.39708973  0.56769349  0.84665025     0.84500
C827        C  0.39670570  0.42261054  0.84626893     0.84800
O828        O  0.39621000  0.44583698  0.87641965    -0.80100
O829        O  0.04816702  0.60091252  0.25657740    -0.77600
C830        C  0.91499465  0.60692799  0.24068981     0.83400
O831        O  0.99877427  0.53493203  0.14272902    -0.78700
O832        O  0.92797726  0.67160188  0.12613592    -0.80200
O833        O  0.03219748  0.71411737  0.21790529    -0.80000
O834        O  0.08820313  0.62855260  0.21129316    -0.78600
Zn835      Zn  0.99811415  0.59353743  0.22531110     1.55700
O836        O  0.96525101  0.71433568  0.21781627    -0.80000
Cd837      Cd  0.04623556  0.66351918  0.18347231     1.59700
Cd838      Cd  0.99900101  0.59699995  0.13236770     1.59600
O839        O  0.07040362  0.67122334  0.12679255    -0.80000
O840        O  0.99873292  0.62904690  0.18086655    -1.90500
Cd841      Cd  0.95129509  0.66382752  0.18308636     1.59900
O842        O  0.04846970  0.61385194  0.10053956    -0.80000
O843        O  0.90902988  0.62870370  0.21031976    -0.78600
C844        C  0.99772647  0.51583153  0.17569618     0.83900
C845        C  0.08242473  0.60567660  0.24088989     0.83600
O846        O  0.94906374  0.60421156  0.25720239    -0.77600
C847        C  0.99876296  0.72866580  0.22962231     0.84400
O848        O  0.99687475  0.53444784  0.20889039    -0.77700
C849        C  0.07170228  0.64401258  0.10012433     0.84500
C850        C  0.92676558  0.64418368  0.09967776     0.84800
O851        O  0.94981996  0.61392331  0.10043884    -0.80100
O852        O  0.95076550  0.38176116  0.25742126    -0.77600
C853        C  0.08312559  0.38237486  0.24096463     0.83400
O854        O  0.99919591  0.45225758  0.14275968    -0.78700
O855        O  0.07193826  0.31666738  0.12666705    -0.80200
O856        O  0.96633293  0.27358863  0.21745481    -0.80000
O857        O  0.91009523  0.35979379  0.21005265    -0.78600
Zn858      Zn  0.99920953  0.39344639  0.22521881     1.55700
O859        O  0.03337244  0.27363053  0.21759669    -0.80000
Cd860      Cd  0.95207621  0.32397981  0.18280579     1.59700
Cd861      Cd  0.99998228  0.39033450  0.13218591     1.59600
O862        O  0.92867454  0.31604224  0.12588256    -0.80000
O863        O  0.99989401  0.35825111  0.18055201    -1.90500
Cd864      Cd  0.04780985  0.32425007  0.18336937     1.59900
O865        O  0.95108509  0.37332830  0.09983882    -0.80000
O866        O  0.08958445  0.35990163  0.21118886    -0.78600
C867        C  0.99800169  0.47130531  0.17573624     0.83900
C868        C  0.91671868  0.38086919  0.24078026     0.83600
O869        O  0.04881366  0.38551264  0.25682275    -0.77600
C870        C  0.99984002  0.25920197  0.22924412     0.84400
O871        O  0.99745278  0.45266313  0.20896757    -0.77700
C872        C  0.92777765  0.34326474  0.09919924     0.84500
C873        C  0.07302413  0.34400732  0.10010190     0.84800
O874        O  0.04962051  0.37400451  0.10062902    -0.80100
O875        O  0.11226512  0.54390538  0.23614359    -0.77600
C876        C  0.11228058  0.41181322  0.25281943     0.83400
O877        O  0.04171164  0.49543445  0.35073165    -0.78700
O878        O  0.17841186  0.42389550  0.36688397    -0.80200
O879        O  0.22107158  0.52891639  0.27559043    -0.80000
O880        O  0.13433604  0.58458448  0.28339826    -0.78600
Zn881      Zn  0.10069215  0.49558389  0.26834037     1.55700
O882        O  0.22097498  0.46208048  0.27536088    -0.80000
Cd883      Cd  0.17048954  0.54294478  0.31055850     1.59700
Cd884      Cd  0.10390446  0.49512071  0.36133082     1.59600
O885        O  0.17808185  0.56664292  0.36746935    -0.80000
O886        O  0.13610726  0.49521986  0.31293653    -1.90500
Cd887      Cd  0.17047241  0.44764436  0.31008079     1.59900
O888        O  0.12059676  0.54424566  0.39340441    -0.80000
O889        O  0.13488779  0.40564735  0.28260388    -0.78600
C890        C  0.02257487  0.49660252  0.31775519     0.83900
C891        C  0.11302282  0.57783939  0.25283296     0.83600
O892        O  0.10875725  0.44598436  0.23690411    -0.77600
C893        C  0.23543147  0.49551251  0.26363757     0.84400
O894        O  0.04127173  0.49724222  0.28453625    -0.77700
C895        C  0.15064084  0.56763480  0.39401562     0.84500
C896        C  0.15103989  0.42262554  0.39348309     0.84800
O897        O  0.12080492  0.44578751  0.39301047    -0.80100
O898        O  0.89320924  0.44540380  0.23722028    -0.77600
C899        C  0.88552401  0.57790030  0.25253083     0.83400
O900        O  0.95873909  0.49529351  0.35072293    -0.78700
O901        O  0.82114956  0.56535681  0.36729387    -0.80200
O902        O  0.77952515  0.46042964  0.27534593    -0.80000
O903        O  0.86579505  0.40530248  0.28253300    -0.78600
Zn904      Zn  0.89984180  0.49555795  0.26823283     1.55700
O905        O  0.77849696  0.52719780  0.27572053    -0.80000
Cd906      Cd  0.83023008  0.44701612  0.31008043     1.59700
Cd907      Cd  0.89648622  0.49490182  0.36110176     1.59600
O908        O  0.82243470  0.42349744  0.36695181    -0.80000
O909        O  0.86428218  0.49472206  0.31267760    -1.90500
Cd910      Cd  0.82893631  0.54174268  0.31045464     1.59900
O911        O  0.87986060  0.44571169  0.39317944    -0.80000
O912        O  0.86388122  0.58400352  0.28299745    -0.78600
C913        C  0.97788943  0.49669833  0.31776852     0.83900
C914        C  0.88865726  0.41120433  0.25289397     0.83600
O915        O  0.88781035  0.54391392  0.23601409    -0.77600
C916        C  0.76462357  0.49365449  0.26367166     0.84400
O917        O  0.95918895  0.49769553  0.28457578    -0.77700
C918        C  0.84968759  0.42246707  0.39366849     0.84500
C919        C  0.84883981  0.56691601  0.39354141     0.84800
O920        O  0.87927066  0.54403872  0.39274323    -0.80100
O921        O  0.25999832  0.04328429  0.60665592    -0.77600
C922        C  0.24372492  0.91120494  0.60895998     0.83400
O923        O  0.14545526  0.99381043  0.53735785    -0.78700
O924        O  0.12920361  0.92294714  0.67429998    -0.80200
O925        O  0.22025695  0.02770983  0.71766099    -0.80000
O926        O  0.21383913  0.08375507  0.63168168    -0.78600
Zn927      Zn  0.22798395  0.99443826  0.59644238     1.55700
O928        O  0.22062094  0.96091515  0.71736437    -0.80000
Cd929      Cd  0.18599810  0.04178427  0.66680219     1.59700
Cd930      Cd  0.13514600  0.99435133  0.59970547     1.59600
O931        O  0.12920236  0.06567905  0.67408641    -0.80000
O932        O  0.18354721  0.99431699  0.63206903    -1.90500
Cd933      Cd  0.18608643  0.94678592  0.66666741     1.59900
O934        O  0.10360787  0.04391400  0.61623420    -0.80000
O935        O  0.21376498  0.90490155  0.63129407    -0.78600
C936        C  0.17845460  0.99403597  0.51817354     0.83900
C937        C  0.24390767  0.07743058  0.60951453     0.83600
O938        O  0.25978156  0.94535287  0.60588164    -0.77600
C939        C  0.23221740  0.99431407  0.73195849     0.84400
O940        O  0.21169831  0.99449794  0.53689980    -0.77700
C941        C  0.10293480  0.06709284  0.64642104     0.84500
C942        C  0.10253640  0.92196256  0.64698305     0.84800
O943        O  0.10305703  0.94534455  0.61693867    -0.80100
O944        O  0.26019704  0.94462089  0.38563999    -0.77600
C945        C  0.24349774  0.07661772  0.38333699     0.83400
O946        O  0.14553278  0.99378325  0.45413942    -0.78700
O947        O  0.12967210  0.06507494  0.31704882    -0.80200
O948        O  0.22153130  0.96028779  0.27474720    -0.80000
O949        O  0.21406086  0.90402465  0.36082448    -0.78600
Zn950      Zn  0.22814117  0.99350135  0.39541212     1.55700
O951        O  0.22124561  0.02711427  0.27474297    -0.80000
Cd952      Cd  0.18669469  0.94595520  0.32514769     1.59700
Cd953      Cd  0.13530493  0.99374767  0.39169783     1.59600
O954        O  0.12988739  0.92221607  0.31705904    -0.80000
O955        O  0.18381765  0.99354981  0.35964893    -1.90500
Cd956      Cd  0.18641897  0.04116399  0.32516278     1.59900
O957        O  0.10363548  0.94451672  0.37441497    -0.80000
O958        O  0.21358282  0.08301878  0.36098074    -0.78600
C959        C  0.17849234  0.99376802  0.47343283     0.83900
C960        C  0.24405447  0.91047926  0.38306749     0.83600
O961        O  0.25984626  0.04256854  0.38584431    -0.77600
C962        C  0.23320991  0.99375957  0.26036606     0.84400
O963        O  0.21178419  0.99357351  0.45482029    -0.77700
C964        C  0.10319852  0.92117108  0.34434565     0.84500
C965        C  0.10312468  0.06640391  0.34445392     0.84800
O966        O  0.10360509  0.04313679  0.37459611    -0.80100
O967        O  0.23968882  0.10281265  0.54576098    -0.77600
C968        C  0.25512582  0.10544495  0.41309335     0.83400
O969        O  0.35518224  0.03563732  0.49633436    -0.78700
O970        O  0.36893077  0.17171748  0.42383426    -0.80200
O971        O  0.27817658  0.21490538  0.52951397    -0.80000
O972        O  0.28537156  0.12907453  0.58607858    -0.78600
Zn973      Zn  0.27170596  0.09346716  0.49672954     1.55700
O974        O  0.27797714  0.21467562  0.46259975    -0.80000
Cd975      Cd  0.31279581  0.16435972  0.54385883     1.59700
Cd976      Cd  0.36448325  0.09803991  0.49628782     1.59600
O977        O  0.36956587  0.17244662  0.56786717    -0.80000
O978        O  0.31558712  0.12969978  0.49628351    -1.90500
Cd979      Cd  0.31235798  0.16397770  0.44847903     1.59900
O980        O  0.39615131  0.11536472  0.54554997    -0.80000
O981        O  0.28443217  0.12858637  0.40678112    -0.78600
C982        C  0.32233849  0.01623697  0.49679444     0.83900
C983        C  0.25563965  0.10642274  0.57996075     0.83600
O984        O  0.23963337  0.10123468  0.44744903    -0.77600
C985        C  0.26639796  0.22929566  0.49602944     0.84400
O986        O  0.28897166  0.03462329  0.49720873    -0.77700
C987        C  0.39639141  0.14534546  0.56896700     0.84500
C988        C  0.39595835  0.14479475  0.42306478     0.84800
O989        O  0.39598370  0.11513112  0.44688174    -0.80100
O990        O  0.24006669  0.88569680  0.44709761    -0.77600
C991        C  0.25562290  0.88200235  0.57968982     0.83400
O992        O  0.35529085  0.95234453  0.49661540    -0.78700
O993        O  0.36955899  0.81572182  0.56831577    -0.80200
O994        O  0.27846590  0.77331317  0.46334901    -0.80000
O995        O  0.28541998  0.85887141  0.40674321    -0.78600
Zn996      Zn  0.27194807  0.89425959  0.49638675     1.55700
O997        O  0.27825296  0.77368395  0.53027631    -0.80000
Cd998      Cd  0.31311883  0.82370365  0.44886480     1.59700
Cd999      Cd  0.36471789  0.88998622  0.49644591     1.59600
O1000       O  0.36986820  0.81581126  0.42472474    -0.80000
O1001       O  0.31594955  0.85826416  0.49642703    -1.90500
Cd1002     Cd  0.31295665  0.82400827  0.54424935     1.59900
O1003       O  0.39638178  0.87288375  0.44716816    -0.80000
O1004       O  0.28543366  0.85954523  0.58610425    -0.78600
C1005       C  0.32239217  0.97164926  0.49671846     0.83900
C1006       C  0.25581005  0.88168911  0.41284024     0.83600
O1007       O  0.23977013  0.88523448  0.54540069    -0.77600
C1008       C  0.26654485  0.75915217  0.49687107     0.84400
O1009       O  0.28906348  0.95316877  0.49667498    -0.77700
C1010       C  0.39666624  0.84295573  0.42369875     0.84500
C1011       C  0.39644112  0.84275998  0.56922409     0.84800
O1012       O  0.39624253  0.87264588  0.54569148    -0.80100
O1013       O  0.95120662  0.25481944  0.60477303    -0.77600
C1014       C  0.08365359  0.23873747  0.60793971     0.83400
O1015       O  0.00023013  0.14043741  0.53689543    -0.78700
O1016       O  0.07134462  0.12475144  0.67350406    -0.80200
O1017       O  0.96702295  0.21597786  0.71683280    -0.80000
O1018       O  0.91072662  0.20923617  0.63096259    -0.78600
Zn1019     Zn  0.00036477  0.22310426  0.59543028     1.55700
O1020       O  0.03398409  0.21625234  0.71645992    -0.80000
Cd1021     Cd  0.95277105  0.18160779  0.66611733     1.59700
Cd1022     Cd  0.00007587  0.13071311  0.59911921     1.59600
O1023       O  0.92886550  0.12485827  0.67362121    -0.80000
O1024       O  0.00022696  0.17907427  0.63129926    -1.90500
Cd1025     Cd  0.04785891  0.18160017  0.66579918     1.59900
O1026       O  0.95081699  0.09901552  0.61598036    -0.80000
O1027       O  0.08988341  0.20885437  0.63028386    -0.78600
C1028       C  0.00050533  0.17326495  0.51763593     0.83900
C1029       C  0.91697946  0.23885557  0.60827139     0.83600
O1030       O  0.04948171  0.25488973  0.60488270    -0.77600
C1031       C  0.00053631  0.22788192  0.73109261     0.84400
O1032       O  0.00059398  0.20648848  0.53618548    -0.77700
C1033       C  0.92767524  0.09836502  0.64621635     0.84500
C1034       C  0.07233607  0.09813663  0.64621197     0.84800
O1035       O  0.04914988  0.09877273  0.61601108    -0.80100
O1036       O  0.04949626  0.25509261  0.38556984    -0.77600
C1037       C  0.91638673  0.23886342  0.38387149     0.83400
O1038       O  0.00002357  0.14026480  0.45385617    -0.78700
O1039       O  0.92815948  0.12516745  0.31747695    -0.80200
O1040       O  0.03333026  0.21569625  0.27469809    -0.80000
O1041       O  0.08984620  0.20878893  0.36064471    -0.78600
Zn1042     Zn  0.00041342  0.22306282  0.39540253     1.55700
O1043       O  0.96631894  0.21627059  0.27515258    -0.80000
Cd1044     Cd  0.04778398  0.18112607  0.32519056     1.59700
Cd1045     Cd  0.00008687  0.13021752  0.39161079     1.59600
O1046       O  0.07157431  0.12424611  0.31734786    -0.80000
O1047       O  0.00010287  0.17876606  0.35972625    -1.90500
Cd1048     Cd  0.95218834  0.18170882  0.32560381     1.59900
O1049       O  0.04918365  0.09812041  0.37467495    -0.80000
O1050       O  0.91028300  0.20920950  0.36118398    -0.78600
C1051       C  0.00061103  0.17316608  0.47302549     0.83900
C1052       C  0.08369360  0.23892348  0.38270218     0.83600
O1053       O  0.95067241  0.25466119  0.38771841    -0.77600
C1054       C  0.99981912  0.22776551  0.26055536     0.84400
O1055       O  0.00115119  0.20633533  0.45441462    -0.77700
C1056       C  0.07247878  0.09750834  0.34455124     0.84500
C1057       C  0.92730427  0.09833281  0.34455161     0.84800
O1058       O  0.95079338  0.09862262  0.37453217    -0.80100
O1059       O  0.11053495  0.23439398  0.44603156    -0.77600
C1060       C  0.11300391  0.25052214  0.57875884     0.83400
O1061       O  0.04163795  0.34831227  0.49632455    -0.78700
O1062       O  0.17858284  0.36470903  0.56778688    -0.80200
O1063       O  0.22091359  0.27293818  0.46251218    -0.80000
O1064       O  0.13495733  0.28112288  0.40595751    -0.78600
Zn1065     Zn  0.10072272  0.26610099  0.49530249     1.55700
O1066       O  0.22115081  0.27314098  0.52944314    -0.80000
Cd1067     Cd  0.17061449  0.30811605  0.44825380     1.59700
Cd1068     Cd  0.10394031  0.35888604  0.49652300     1.59600
O1069       O  0.17849602  0.36509644  0.42508245    -0.80000
O1070       O  0.13618109  0.31059991  0.49589939    -1.90500
Cd1071     Cd  0.17080328  0.30806965  0.54351004     1.59900
O1072       O  0.12094701  0.39096431  0.44747234    -0.80000
O1073       O  0.13523055  0.28046941  0.58513889    -0.78600
C1074       C  0.02251545  0.31535495  0.49553974     0.83900
C1075       C  0.11307188  0.25083338  0.41197616     0.83600
O1076       O  0.11009334  0.23442267  0.54456557    -0.77600
C1077       C  0.23529975  0.26106361  0.49598045     0.84400
O1078       O  0.04127157  0.28223713  0.49494458    -0.77700
C1079       C  0.15110867  0.39166345  0.42418361     0.84500
C1080       C  0.15112667  0.39118438  0.56913071     0.84800
O1081       O  0.12084098  0.39053999  0.54599879    -0.80100
O1082       O  0.89086096  0.23440367  0.54484258    -0.77600
C1083       C  0.88650507  0.25069464  0.41260530     0.83400
O1084       O  0.95858817  0.34812541  0.49675345    -0.78700
O1085       O  0.82189669  0.36527829  0.42551991    -0.80200
O1086       O  0.77880088  0.27275433  0.52950888    -0.80000
O1087       O  0.86486547  0.27994244  0.58544987    -0.78600
Zn1088     Zn  0.89954052  0.26590054  0.49540610     1.55700
O1089       O  0.77852762  0.27334746  0.46260138    -0.80000
Cd1090     Cd  0.82933323  0.30733261  0.54364277     1.59700
Cd1091     Cd  0.89632281  0.35840272  0.49668082     1.59600
O1092       O  0.82141474  0.36384004  0.56768788    -0.80000
O1093       O  0.86394732  0.31020080  0.49610295    -1.90500
Cd1094     Cd  0.82925191  0.30817785  0.44859004     1.59900
O1095       O  0.87925780  0.38967858  0.54611034    -0.80000
O1096       O  0.86486094  0.28110773  0.40636832    -0.78600
C1097       C  0.97779153  0.31525890  0.49551273     0.83900
C1098       C  0.88757282  0.25036894  0.57905625     0.83600
O1099       O  0.88837320  0.23408759  0.44660890    -0.77600
C1100       C  0.76424446  0.26122895  0.49603209     0.84400
O1101       O  0.95910142  0.28209286  0.49444143    -0.77700
C1102       C  0.84892182  0.39023239  0.56914935     0.84500
C1103       C  0.84950349  0.39161686  0.42447474     0.84800
O1104       O  0.87971885  0.39072234  0.44767526    -0.80100
loop_ 
_geom_bond_atom_site_label_1 
_geom_bond_atom_site_label_2 
_geom_bond_distance 
_geom_bond_site_symmetry_2 
_ccdc_geom_bond_type 
O1           C17   1.271       .  A
O1           Zn7   1.990       .  S
C2           O18   1.271       .  A
C2           O15   1.270       .  A
C2           C48   1.444       .  S
O3           C16   1.278       .  A
O3          Cd10   2.115       .  S
O4           C22   1.280       .  A
O4          Cd13   2.084       .  S
O5           C19   1.284       .  A
O5           Cd9   2.112       .  S
O6           C17   1.270       .  A
O6           Cd9   2.063       .  S
Zn7          O18   1.990   1_655  S
Zn7          O20   2.061       .  S
Zn7          O12   1.907       .  S
O8           C19   1.284   1_455  A
O8          Cd13   2.112       .  S
Cd9          O11   2.083       .  S
Cd9          O12   1.974       .  S
Cd10         O14   2.042       .  S
Cd10         O23   2.044   1_655  S
Cd10         O12   1.952       .  S
O11          C21   1.280       .  A
O12         Cd13   1.975   1_655  S
Cd13         O15   2.061       .  S
O14          C21   1.276       .  A
C16          O20   1.277       .  A
C16          C39   1.497       .  S
C17          C86   1.445       .  S
C19         C387   1.493       .  S
C21         C298   1.462       .  S
C22          O23   1.277       .  A
C22         C780   1.463       .  S
O24          C40   1.272       .  A
O24         Zn30   1.988   1_455  S
C25          O41   1.271       .  A
C25          O38   1.270       .  A
C25          C71   1.444       .  S
O26          C39   1.278       .  A
O26         Cd33   2.116   1_655  S
O27          C45   1.280       .  A
O27         Cd36   2.081       .  S
O28          C42   1.284       .  A
O28         Cd32   2.111       .  S
O29          C40   1.270       .  A
O29         Cd32   2.059       .  S
Zn30         O41   1.989       .  S
Zn30         O43   2.059       .  S
Zn30         O35   1.906   1_655  S
O31          C42   1.284   1_655  A
O31         Cd36   2.110       .  S
Cd32         O34   2.084       .  S
Cd32         O35   1.973       .  S
Cd33         O37   2.043       .  S
Cd33         O46   2.042   1_455  S
Cd33         O35   1.950       .  S
O34          C44   1.280       .  A
O35         Cd36   1.975   1_455  S
Cd36         O38   2.060       .  S
O37          C44   1.276       .  A
C39          O43   1.277       .  A
C40          C63   1.443       .  S
C42        C1031   1.491       .  S
C44         C758   1.463       .  S
C45          O46   1.276       .  A
C45         C320   1.462       .  S
O47          C63   1.271       .  A
O47         Zn53   1.988       .  S
C48          O64   1.271       .  A
C48          O61   1.270       .  A
O49          C62   1.279       .  A
O49         Cd56   2.119       .  S
O50          C68   1.279       .  A
O50         Cd59   2.079       .  S
O51          C65   1.284       .  A
O51         Cd55   2.110       .  S
O52          C63   1.269       .  A
O52         Cd55   2.059       .  S
Zn53         O64   1.988       .  S
Zn53         O66   2.069       .  S
Zn53         O58   1.909       .  S
O54          C65   1.284       .  A
O54         Cd59   2.110       .  S
Cd55         O57   2.084       .  S
Cd55         O58   1.976       .  S
Cd56         O60   2.050       .  S
Cd56         O69   2.049       .  S
Cd56         O58   1.949       .  S
O57          C67   1.280       .  A
O58         Cd59   1.975       .  S
Cd59         O61   2.061       .  S
O60          C67   1.277       .  A
C62          O66   1.278       .  A
C62          C85   1.500   1_455  S
C65         C824   1.490       .  S
C67        C1080   1.465       .  S
C68          O69   1.277       .  A
C68         C435   1.463       .  S
O70          C86   1.271       .  A
O70         Zn76   1.991       .  S
C71          O87   1.271       .  A
C71          O84   1.270       .  A
O72          C85   1.279       .  A
O72         Cd79   2.119       .  S
O73          C91   1.279       .  A
O73         Cd82   2.079       .  S
O74          C88   1.284       .  A
O74         Cd78   2.110       .  S
O75          C86   1.270       .  A
O75         Cd78   2.062       .  S
Zn76         O87   1.991       .  S
Zn76         O89   2.067       .  S
Zn76         O81   1.909       .  S
O77          C88   1.283       .  A
O77         Cd82   2.106       .  S
Cd78         O80   2.083       .  S
Cd78         O81   1.974       .  S
Cd79         O83   2.050       .  S
Cd79         O92   2.045       .  S
Cd79         O81   1.949       .  S
O80          C90   1.280       .  A
O81         Cd82   1.975       .  S
Cd82         O84   2.058       .  S
O83          C90   1.277       .  A
C85          O89   1.278       .  A
C88         C364   1.489       .  S
C90         C459   1.464       .  S
C91          O92   1.277       .  A
C91        C1102   1.461       .  S
O93         C109   1.271       .  A
O93         Zn99   1.989   1_545  S
C94         O110   1.271       .  A
C94         O107   1.270       .  A
C94         C163   1.446       .  S
O95         C108   1.279       .  A
O95        Cd102   2.120       .  S
O96         C114   1.280       .  A
O96        Cd105   2.084       .  S
O97         C111   1.284   1_545  A
O97        Cd101   2.111       .  S
O98         C109   1.270       .  A
O98        Cd101   2.064       .  S
Zn99        O110   1.991       .  S
Zn99        O112   2.071       .  S
Zn99        O104   1.910       .  S
O100        C111   1.285       .  A
O100       Cd105   2.113       .  S
Cd101       O103   2.080       .  S
Cd101       O104   1.977   1_545  S
Cd102       O106   2.046   1_565  S
Cd102       O115   2.051       .  S
Cd102       O104   1.948       .  S
O103        C113   1.280       .  A
O104       Cd105   1.975       .  S
Cd105       O107   2.065       .  S
O106        C113   1.277       .  A
C108        O112   1.279       .  A
C108        C131   1.501       .  S
C109        C155   1.446       .  S
C111        C479   1.491       .  S
C113        C666   1.462       .  S
C114        O115   1.277       .  A
C114        C228   1.465       .  S
O116        C132   1.272       .  A
O116       Zn122   1.990       .  S
C117        O133   1.271       .  A
C117        O130   1.269       .  A
C117        C140   1.443       .  S
O118        C131   1.279       .  A
O118       Cd125   2.121       .  S
O119        C137   1.280       .  A
O119       Cd128   2.082       .  S
O120        C134   1.284       .  A
O120       Cd124   2.109       .  S
O121        C132   1.270       .  A
O121       Cd124   2.058       .  S
Zn122       O133   1.990   1_565  S
Zn122       O135   2.071       .  S
Zn122       O127   1.910       .  S
O123        C134   1.284   1_545  A
O123       Cd128   2.110       .  S
Cd124       O126   2.080       .  S
Cd124       O127   1.974       .  S
Cd125       O129   2.049       .  S
Cd125       O138   2.050   1_565  S
Cd125       O127   1.950       .  S
O126        C136   1.279       .  A
O127       Cd128   1.977   1_565  S
Cd128       O130   2.057       .  S
O129        C136   1.277       .  A
C131        O135   1.278       .  A
C132        C178   1.444       .  S
C134        C939   1.491       .  S
C136        C206   1.463       .  S
C137        O138   1.277       .  A
C137        C688   1.464       .  S
O139        C155   1.272       .  A
O139       Zn145   1.993       .  S
C140        O156   1.272       .  A
C140        O153   1.270       .  A
O141        C154   1.278       .  A
O141       Cd148   2.117       .  S
O142        C160   1.280       .  A
O142       Cd151   2.084       .  S
O143        C157   1.284       .  A
O143       Cd147   2.112       .  S
O144        C155   1.270       .  A
O144       Cd147   2.061       .  S
Zn145       O156   1.990       .  S
Zn145       O158   2.059       .  S
Zn145       O150   1.909       .  S
O146        C157   1.284       .  A
O146       Cd151   2.112       .  S
Cd147       O149   2.086       .  S
Cd147       O150   1.974       .  S
Cd148       O152   2.045       .  S
Cd148       O161   2.045       .  S
Cd148       O150   1.953       .  S
O149        C159   1.280       .  A
O150       Cd151   1.977       .  S
Cd151       O153   2.057       .  S
O152        C159   1.277       .  A
C154        O158   1.277       .  A
C154        C177   1.497   1_545  S
C157        C732   1.492       .  S
C159        C528   1.464       .  S
C160        O161   1.276       .  A
C160        C987   1.464       .  S
O162        C178   1.271       .  A
O162       Zn168   1.990       .  S
C163        O179   1.271       .  A
C163        O176   1.271       .  A
O164        C177   1.278       .  A
O164       Cd171   2.115       .  S
O165        C183   1.280       .  A
O165       Cd174   2.083       .  S
O166        C180   1.284       .  A
O166       Cd170   2.107       .  S
O167        C178   1.270       .  A
O167       Cd170   2.060       .  S
Zn168       O179   1.990       .  S
Zn168       O181   2.060       .  S
Zn168       O173   1.907       .  S
O169        C180   1.284       .  A
O169       Cd174   2.110       .  S
Cd170       O172   2.081       .  S
Cd170       O173   1.977       .  S
Cd171       O175   2.043       .  S
Cd171       O184   2.045       .  S
Cd171       O173   1.950       .  S
O172        C182   1.279       .  A
O173       Cd174   1.972       .  S
Cd174       O176   2.065       .  S
O175        C182   1.276       .  A
C177        O181   1.277       .  A
C180        C272   1.490       .  S
C182       C1011   1.462       .  S
C183        O184   1.277       .  A
C183        C550   1.463       .  S
O185        C201   1.271       .  A
O185       Zn191   1.988   1_554  S
C186        O202   1.270       .  A
C186        O199   1.270       .  A
C186        C255   1.444       .  S
O187        C200   1.278       .  A
O187       Cd194   2.113       .  S
O188        C206   1.280       .  A
O188       Cd197   2.084       .  S
O189        C203   1.285   1_554  A
O189       Cd193   2.115       .  S
O190        C201   1.270       .  A
O190       Cd193   2.065       .  S
Zn191       O202   1.987       .  S
Zn191       O204   2.063       .  S
Zn191       O196   1.908       .  S
O192        C203   1.285       .  A
O192       Cd197   2.113       .  S
Cd193       O195   2.083       .  S
Cd193       O196   1.974   1_554  S
Cd194       O198   2.043   1_556  S
Cd194       O207   2.044       .  S
Cd194       O196   1.951       .  S
O195        C205   1.280       .  A
O196       Cd197   1.976       .  S
Cd197       O199   2.063       .  S
O198        C205   1.276       .  A
C200        O204   1.278       .  A
C200        C223   1.497       .  S
C201        C247   1.446       .  S
C203        C778   1.493       .  S
C205        C597   1.462       .  S
C206        O207   1.276       .  A
O208        C224   1.272       .  A
O208       Zn214   1.989       .  S
C209        O225   1.272       .  A
C209        O222   1.270       .  A
C209        C232   1.444       .  S
O210        C223   1.278       .  A
O210       Cd217   2.115       .  S
O211        C229   1.280       .  A
O211       Cd220   2.081       .  S
O212        C226   1.284       .  A
O212       Cd216   2.111       .  S
O213        C224   1.270       .  A
O213       Cd216   2.057       .  S
Zn214       O225   1.992   1_556  S
Zn214       O227   2.060       .  S
Zn214       O219   1.907       .  S
O215        C226   1.284   1_554  A
O215       Cd220   2.108       .  S
Cd216       O218   2.085       .  S
Cd216       O219   1.973       .  S
Cd217       O221   2.048       .  S
Cd217       O230   2.041   1_556  S
Cd217       O219   1.950       .  S
O218        C228   1.280       .  A
O219       Cd220   1.973   1_556  S
Cd220       O222   2.057       .  S
O221        C228   1.277       .  A
C223        O227   1.277       .  A
C224        C270   1.443       .  S
C226        C295   1.491       .  S
C229        O230   1.276       .  A
C229        C573   1.461       .  S
O231        C247   1.272       .  A
O231       Zn237   1.993       .  S
C232        O248   1.271       .  A
C232        O245   1.270       .  A
O233        C246   1.279       .  A
O233       Cd240   2.113       .  S
O234        C252   1.280       .  A
O234       Cd243   2.083       .  S
O235        C249   1.284       .  A
O235       Cd239   2.108       .  S
O236        C247   1.270       .  A
O236       Cd239   2.062       .  S
Zn237       O248   1.989       .  S
Zn237       O250   2.063       .  S
Zn237       O242   1.908       .  S
O238        C249   1.284       .  A
O238       Cd243   2.110       .  S
Cd239       O241   2.079       .  S
Cd239       O242   1.970       .  S
Cd240       O244   2.047       .  S
Cd240       O253   2.048       .  S
Cd240       O242   1.947       .  S
O241        C251   1.279       .  A
O242       Cd243   1.974       .  S
Cd243       O245   2.060       .  S
O244        C251   1.277       .  A
C246        O250   1.278       .  A
C246        C269   1.496   1_554  S
C249        C640   1.490       .  S
C251        C804   1.462       .  S
C252        O253   1.277       .  A
C252        C343   1.464       .  S
O254        C270   1.271       .  A
O254       Zn260   1.991       .  S
C255        O271   1.271       .  A
C255        O268   1.270       .  A
O256        C269   1.278       .  A
O256       Cd263   2.111       .  S
O257        C275   1.280       .  A
O257       Cd266   2.081       .  S
O258        C272   1.284       .  A
O258       Cd262   2.109       .  S
O259        C270   1.269       .  A
O259       Cd262   2.057       .  S
Zn260       O271   1.992       .  S
Zn260       O273   2.065       .  S
Zn260       O265   1.911       .  S
O261        C272   1.284       .  A
O261       Cd266   2.108       .  S
Cd262       O264   2.086       .  S
Cd262       O265   1.976       .  S
Cd263       O267   2.049       .  S
Cd263       O276   2.049       .  S
Cd263       O265   1.949       .  S
O264        C274   1.280       .  A
O265       Cd266   1.972       .  S
Cd266       O268   2.059       .  S
O267        C274   1.277       .  A
C269        O273   1.278       .  A
C274        C367   1.465       .  S
C275        O276   1.277       .  A
C275        C826   1.464       .  S
O277        C293   1.271       .  A
O277       Zn283   1.988   1_554  S
C278        O294   1.270       .  A
C278        O291   1.269       .  A
C278        C347   1.442       .  S
O279        C292   1.279       .  A
O279       Cd286   2.117       .  S
O280        C298   1.279       .  A
O280       Cd289   2.078       .  S
O281        C295   1.284   1_554  A
O281       Cd285   2.110       .  S
O282        C293   1.270       .  A
O282       Cd285   2.062       .  S
Zn283       O294   1.984       .  S
Zn283       O296   2.068       .  S
Zn283       O288   1.906       .  S
O284        C295   1.284       .  A
O284       Cd289   2.110       .  S
Cd285       O287   2.079       .  S
Cd285       O288   1.972   1_554  S
Cd286       O290   2.044   1_556  S
Cd286       O299   2.046       .  S
Cd286       O288   1.947       .  S
O287        C297   1.279       .  A
O288       Cd289   1.976       .  S
Cd289       O291   2.060       .  S
O290        C297   1.277       .  A
C292        O296   1.278       .  A
C292        C315   1.499       .  S
C293        C339   1.444       .  S
C297        C850   1.461       .  S
C298        O299   1.277       .  A
O300        C316   1.271       .  A
O300       Zn306   1.992       .  S
C301        O317   1.272       .  A
C301        O314   1.270       .  A
C301        C324   1.445       .  S
O302        C315   1.279       .  A
O302       Cd309   2.118       .  S
O303        C321   1.279       .  A
O303       Cd312   2.079       .  S
O304        C318   1.284       .  A
O304       Cd308   2.107       .  S
O305        C316   1.270       .  A
O305       Cd308   2.059       .  S
Zn306       O317   1.993   1_556  S
Zn306       O319   2.066       .  S
Zn306       O311   1.908       .  S
O307        C318   1.283   1_554  A
O307       Cd312   2.106       .  S
Cd308       O310   2.079       .  S
Cd308       O311   1.974       .  S
Cd309       O313   2.045       .  S
Cd309       O322   2.047   1_556  S
Cd309       O311   1.949       .  S
O310        C320   1.279       .  A
O311       Cd312   1.971   1_556  S
Cd312       O314   2.059       .  S
O313        C320   1.277       .  A
C315        O319   1.278       .  A
C316        C362   1.444       .  S
C318        C663   1.489       .  S
C321        O322   1.277       .  A
C321        C872   1.462       .  S
O323        C339   1.271       .  A
O323       Zn329   1.988       .  S
C324        O340   1.270       .  A
C324        O337   1.270       .  A
O325        C338   1.279       .  A
O325       Cd332   2.116       .  S
O326        C344   1.280       .  A
O326       Cd335   2.081       .  S
O327        C341   1.284       .  A
O327       Cd331   2.108       .  S
O328        C339   1.270       .  A
O328       Cd331   2.061       .  S
Zn329       O340   1.988       .  S
Zn329       O342   2.059       .  S
Zn329       O334   1.908       .  S
O330        C341   1.285       .  A
O330       Cd335   2.112       .  S
Cd331       O333   2.083       .  S
Cd331       O334   1.974       .  S
Cd332       O336   2.049       .  S
Cd332       O345   2.044       .  S
Cd332       O334   1.950       .  S
O333        C343   1.280       .  A
O334       Cd335   1.976       .  S
Cd335       O337   2.064       .  S
O336        C343   1.277       .  A
C338        O342   1.277       .  A
C338        C361   1.496   1_554  S
C341        C916   1.491       .  S
C344        O345   1.277       .  A
C344        C711   1.462       .  S
O346        C362   1.271       .  A
O346       Zn352   1.992       .  S
C347        O363   1.272       .  A
C347        O360   1.270       .  A
O348        C361   1.278       .  A
O348       Cd355   2.115       .  S
O349        C367   1.280       .  A
O349       Cd358   2.084       .  S
O350        C364   1.284       .  A
O350       Cd354   2.108       .  S
O351        C362   1.270       .  A
O351       Cd354   2.061       .  S
Zn352       O363   1.988       .  S
Zn352       O365   2.061       .  S
Zn352       O357   1.909       .  S
O353        C364   1.283       .  A
O353       Cd358   2.106       .  S
Cd354       O356   2.079       .  S
Cd354       O357   1.976       .  S
Cd355       O359   2.046       .  S
Cd355       O368   2.049       .  S
Cd355       O357   1.952       .  S
O356        C366   1.279       .  A
O357       Cd358   1.974       .  S
Cd358       O360   2.055       .  S
O359        C366   1.277       .  A
C361        O365   1.277       .  A
C366        C735   1.462       .  S
C367        O368   1.277       .  A
O369        C385   1.272       .  A
O369       Zn375   1.990   1_455  S
C370        O386   1.271       .  A
C370        O383   1.270       .  A
C370        C439   1.445       .  S
O371        C384   1.278       .  A
O371       Cd378   2.116       .  S
O372        C390   1.280       .  A
O372       Cd381   2.081       .  S
O373        C387   1.284   1_455  A
O373       Cd377   2.110       .  S
O374        C385   1.270       .  A
O374       Cd377   2.056       .  S
Zn375       O386   1.994       .  S
Zn375       O388   2.066       .  S
Zn375       O380   1.908       .  S
O376        C387   1.284       .  A
O376       Cd381   2.113       .  S
Cd377       O379   2.085       .  S
Cd377       O380   1.974   1_455  S
Cd378       O382   2.047   1_655  S
Cd378       O391   2.043       .  S
Cd378       O380   1.951       .  S
O379        C389   1.280       .  A
O380       Cd381   1.972       .  S
Cd381       O383   2.060       .  S
O382        C389   1.277       .  A
C384        O388   1.278       .  A
C384        C407   1.499       .  S
C385        C431   1.443       .  S
C389        C942   1.464       .  S
C390        O391   1.277       .  A
C390        C481   1.461       .  S
O392        C408   1.270       .  A
O392       Zn398   1.990       .  S
C393        O409   1.271       .  A
C393        O406   1.270       .  A
C393        C416   1.444       .  S
O394        C407   1.279       .  A
O394       Cd401   2.117       .  S
O395        C413   1.280       .  A
O395       Cd404   2.084       .  S
O396        C410   1.284       .  A
O396       Cd400   2.112       .  S
O397        C408   1.270       .  A
O397       Cd400   2.064       .  S
Zn398       O409   1.987   1_655  S
Zn398       O411   2.066       .  S
Zn398       O403   1.907       .  S
O399        C410   1.284   1_455  A
O399       Cd404   2.111       .  S
Cd400       O402   2.082       .  S
Cd400       O403   1.973       .  S
Cd401       O405   2.046       .  S
Cd401       O414   2.045   1_655  S
Cd401       O403   1.947       .  S
O402        C412   1.280       .  A
O403       Cd404   1.973   1_655  S
Cd404       O406   2.062       .  S
O405        C412   1.277       .  A
C407        O411   1.278       .  A
C408        C454   1.446       .  S
C410        C847   1.491       .  S
C412        C505   1.463       .  S
C413        O414   1.277       .  A
C413        C964   1.463       .  S
O415        C431   1.271       .  A
O415       Zn421   1.990       .  S
C416        O432   1.271       .  A
C416        O429   1.270       .  A
O417        C430   1.278       .  A
O417       Cd424   2.111       .  S
O418        C436   1.279       .  A
O418       Cd427   2.081       .  S
O419        C433   1.284       .  A
O419       Cd423   2.107       .  S
O420        C431   1.269       .  A
O420       Cd423   2.060       .  S
Zn421       O432   1.990       .  S
Zn421       O434   2.064       .  S
Zn421       O426   1.909       .  S
O422        C433   1.283       .  A
O422       Cd427   2.105       .  S
Cd423       O425   2.081       .  S
Cd423       O426   1.975       .  S
Cd424       O428   2.045       .  S
Cd424       O437   2.047       .  S
Cd424       O426   1.948       .  S
O425        C435   1.280       .  A
O426       Cd427   1.972       .  S
Cd427       O429   2.060       .  S
O428        C435   1.276       .  A
C430        O434   1.278       .  A
C430        C453   1.496   1_455  S
C433       C1008   1.488       .  S
C436        O437   1.277       .  A
C436        C895   1.463       .  S
O438        C454   1.272       .  A
O438       Zn444   1.994       .  S
C439        O455   1.271       .  A
C439        O452   1.270       .  A
O440        C453   1.279       .  A
O440       Cd447   2.113       .  S
O441        C459   1.280       .  A
O441       Cd450   2.084       .  S
O442        C456   1.284       .  A
O442       Cd446   2.108       .  S
O443        C454   1.270       .  A
O443       Cd446   2.061       .  S
Zn444       O455   1.992       .  S
Zn444       O457   2.060       .  S
Zn444       O449   1.909       .  S
O445        C456   1.284       .  A
O445       Cd450   2.110       .  S
Cd446       O448   2.082       .  S
Cd446       O449   1.970       .  S
Cd447       O451   2.044       .  S
Cd447       O460   2.048       .  S
Cd447       O449   1.948       .  S
O448        C458   1.280       .  A
O449       Cd450   1.973       .  S
Cd450       O452   2.060       .  S
O451        C458   1.277       .  A
C453        O457   1.277       .  A
C456        C548   1.491       .  S
C458        C919   1.462       .  S
C459        O460   1.277       .  A
O461        C477   1.271       .  A
O461       Zn467   1.990       .  S
C462        O478   1.271       .  A
C462        O475   1.270       .  A
C462        C508   1.444       .  S
O463        C476   1.278       .  A
O463       Cd470   2.116       .  S
O464        C482   1.279       .  A
O464       Cd473   2.080       .  S
O465        C479   1.284       .  A
O465       Cd469   2.109       .  S
O466        C477   1.270       .  A
O466       Cd469   2.058       .  S
Zn467       O478   1.990   1_565  S
Zn467       O480   2.063       .  S
Zn467       O472   1.907       .  S
O468        C479   1.284   1_545  A
O468       Cd473   2.110       .  S
Cd469       O471   2.078       .  S
Cd469       O472   1.974       .  S
Cd470       O474   2.046       .  S
Cd470       O483   2.046   1_565  S
Cd470       O472   1.952       .  S
O471        C481   1.279       .  A
O472       Cd473   1.974   1_565  S
Cd473       O475   2.059       .  S
O474        C481   1.277       .  A
C476        O480   1.277       .  A
C476        C499   1.497       .  S
C477        C546   1.444       .  S
C482        O483   1.277       .  A
C482       C1033   1.462       .  S
O484        C500   1.271       .  A
O484       Zn490   1.988   1_545  S
C485        O501   1.270       .  A
C485        O498   1.270       .  A
C485        C531   1.445       .  S
O486        C499   1.279       .  A
O486       Cd493   2.116       .  S
O487        C505   1.279       .  A
O487       Cd496   2.081       .  S
O488        C502   1.284   1_545  A
O488       Cd492   2.108       .  S
O489        C500   1.270       .  A
O489       Cd492   2.063       .  S
Zn490       O501   1.987       .  S
Zn490       O503   2.062       .  S
Zn490       O495   1.908       .  S
O491        C502   1.284       .  A
O491       Cd496   2.109       .  S
Cd492       O494   2.081       .  S
Cd492       O495   1.975   1_545  S
Cd493       O497   2.045   1_565  S
Cd493       O506   2.047       .  S
Cd493       O495   1.949       .  S
O494        C504   1.279       .  A
O495       Cd496   1.974       .  S
Cd496       O498   2.065       .  S
O497        C504   1.277       .  A
C499        O503   1.278       .  A
C500        C523   1.445       .  S
C502        C571   1.489       .  S
C504       C1057   1.462       .  S
C505        O506   1.277       .  A
O507        C523   1.271       .  A
O507       Zn513   1.990       .  S
C508        O524   1.271       .  A
C508        O521   1.269       .  A
O509        C522   1.279       .  A
O509       Cd516   2.119       .  S
O510        C528   1.280       .  A
O510       Cd519   2.083       .  S
O511        C525   1.284       .  A
O511       Cd515   2.111       .  S
O512        C523   1.270       .  A
O512       Cd515   2.061       .  S
Zn513       O524   1.989       .  S
Zn513       O526   2.064       .  S
Zn513       O518   1.910       .  S
O514        C525   1.285       .  A
O514       Cd519   2.112       .  S
Cd515       O517   2.083       .  S
Cd515       O518   1.975       .  S
Cd516       O520   2.050       .  S
Cd516       O529   2.049       .  S
Cd516       O518   1.951       .  S
O517        C527   1.280       .  A
O518       Cd519   1.976       .  S
Cd519       O521   2.061       .  S
O520        C527   1.277       .  A
C522        O526   1.278       .  A
C522        C545   1.499   1_545  S
C525       C1100   1.492       .  S
C527        C620   1.464       .  S
C528        O529   1.277       .  A
O530        C546   1.271       .  A
O530       Zn536   1.989       .  S
C531        O547   1.271       .  A
C531        O544   1.270       .  A
O532        C545   1.279       .  A
O532       Cd539   2.118       .  S
O533        C551   1.279       .  A
O533       Cd542   2.083       .  S
O534        C548   1.284       .  A
O534       Cd538   2.112       .  S
O535        C546   1.270       .  A
O535       Cd538   2.061       .  S
Zn536       O547   1.989       .  S
Zn536       O549   2.065       .  S
Zn536       O541   1.909       .  S
O537        C548   1.284       .  A
O537       Cd542   2.108       .  S
Cd538       O540   2.082       .  S
Cd538       O541   1.977       .  S
Cd539       O543   2.047       .  S
Cd539       O552   2.046       .  S
Cd539       O541   1.951       .  S
O540        C550   1.280       .  A
O541       Cd542   1.974       .  S
Cd542       O544   2.062       .  S
O543        C550   1.277       .  A
C545        O549   1.278       .  A
C551        O552   1.277       .  A
C551        C642   1.463       .  S
O553        C569   1.272       .  A
O553       Zn559   1.993       .  S
C554        O570   1.271       .  A
C554        O567   1.270       .  A
C554        C600   1.445       .  S
O555        C568   1.279       .  A
O555       Cd562   2.114       .  S
O556        C574   1.279       .  A
O556       Cd565   2.079       .  S
O557        C571   1.283       .  A
O557       Cd561   2.105       .  S
O558        C569   1.270       .  A
O558       Cd561   2.059       .  S
Zn559       O570   1.992   1_565  S
Zn559       O572   2.061       .  S
Zn559       O564   1.907       .  S
O560        C571   1.284   1_545  A
O560       Cd565   2.109       .  S
Cd561       O563   2.078       .  S
Cd561       O564   1.972       .  S
Cd562       O566   2.045       .  S
Cd562       O575   2.048   1_565  S
Cd562       O564   1.948       .  S
O563        C573   1.279       .  A
O564       Cd565   1.972   1_565  S
Cd565       O567   2.061       .  S
O566        C573   1.277       .  A
C568        O572   1.277       .  A
C568        C591   1.497       .  S
C569        C638   1.445       .  S
C574        O575   1.277       .  A
C574        C665   1.462       .  S
O576        C592   1.270       .  A
O576       Zn582   1.987   1_545  S
C577        O593   1.271       .  A
C577        O590   1.270       .  A
C577        C623   1.444       .  S
O578        C591   1.278       .  A
O578       Cd585   2.113       .  S
O579        C597   1.279       .  A
O579       Cd588   2.077       .  S
O580        C594   1.284   1_545  A
O580       Cd584   2.107       .  S
O581        C592   1.269       .  A
O581       Cd584   2.059       .  S
Zn582       O593   1.989       .  S
Zn582       O595   2.066       .  S
Zn582       O587   1.905       .  S
O583        C594   1.283       .  A
O583       Cd588   2.106       .  S
Cd584       O586   2.079       .  S
Cd584       O587   1.974   1_545  S
Cd585       O589   2.044   1_565  S
Cd585       O598   2.046       .  S
Cd585       O587   1.947       .  S
O586        C596   1.279       .  A
O587       Cd588   1.969       .  S
Cd588       O590   2.059       .  S
O589        C596   1.277       .  A
C591        O595   1.278       .  A
C592        C615   1.442       .  S
C594        C962   1.489       .  S
C596        C689   1.461       .  S
C597        O598   1.277       .  A
O599        C615   1.272       .  A
O599       Zn605   1.990       .  S
C600        O616   1.271       .  A
C600        O613   1.270       .  A
O601        C614   1.279       .  A
O601       Cd608   2.117       .  S
O602        C620   1.280       .  A
O602       Cd611   2.083       .  S
O603        C617   1.283       .  A
O603       Cd607   2.104       .  S
O604        C615   1.270       .  A
O604       Cd607   2.056       .  S
Zn605       O616   1.993       .  S
Zn605       O618   2.061       .  S
Zn605       O610   1.910       .  S
O606        C617   1.284       .  A
O606       Cd611   2.108       .  S
Cd607       O609   2.082       .  S
Cd607       O610   1.977       .  S
Cd608       O612   2.048       .  S
Cd608       O621   2.048       .  S
Cd608       O610   1.951       .  S
O609        C619   1.279       .  A
O610       Cd611   1.973       .  S
Cd611       O613   2.061       .  S
O612        C619   1.277       .  A
C614        O618   1.277       .  A
C614        C637   1.498   1_545  S
C617        C709   1.488       .  S
C619        C988   1.464       .  S
C620        O621   1.277       .  A
O622        C638   1.270       .  A
O622       Zn628   1.987       .  S
C623        O639   1.271       .  A
C623        O636   1.270       .  A
O624        C637   1.279       .  A
O624       Cd631   2.116       .  S
O625        C643   1.280       .  A
O625       Cd634   2.082       .  S
O626        C640   1.284       .  A
O626       Cd630   2.110       .  S
O627        C638   1.270       .  A
O627       Cd630   2.064       .  S
Zn628       O639   1.986       .  S
Zn628       O641   2.064       .  S
Zn628       O633   1.908       .  S
O629        C640   1.284       .  A
O629       Cd634   2.108       .  S
Cd630       O632   2.082       .  S
Cd630       O633   1.976       .  S
Cd631       O635   2.047       .  S
Cd631       O644   2.047       .  S
Cd631       O633   1.949       .  S
O632        C642   1.280       .  A
O633       Cd634   1.973       .  S
Cd634       O636   2.061       .  S
O635        C642   1.277       .  A
C637        O641   1.278       .  A
C643        O644   1.277       .  A
C643       C1010   1.463       .  S
O645        C661   1.270       .  A
O645       Zn651   1.989   1_554  S
C646        O662   1.271       .  A
C646        O659   1.270       .  A
C646        C715   1.444       .  S
O647        C660   1.278       .  A
O647       Cd654   2.114       .  S
O648        C666   1.279       .  A
O648       Cd657   2.079       .  S
O649        C663   1.284   1_554  A
O649       Cd653   2.111       .  S
O650        C661   1.270       .  A
O650       Cd653   2.063       .  S
Zn651       O662   1.989       .  S
Zn651       O664   2.068       .  S
Zn651       O656   1.907       .  S
O652        C663   1.283       .  A
O652       Cd657   2.104       .  S
Cd653       O655   2.082       .  S
Cd653       O656   1.974   1_554  S
Cd654       O658   2.045   1_556  S
Cd654       O667   2.044       .  S
Cd654       O656   1.948       .  S
O655        C665   1.280       .  A
O656       Cd657   1.972       .  S
Cd657       O659   2.060       .  S
O658        C665   1.276       .  A
C660        O664   1.278       .  A
C660        C683   1.498       .  S
C661        C707   1.445       .  S
C666        O667   1.277       .  A
O668        C684   1.272       .  A
O668       Zn674   1.989       .  S
C669        O685   1.271       .  A
C669        O682   1.270       .  A
C669        C692   1.445       .  S
O670        C683   1.279       .  A
O670       Cd677   2.116       .  S
O671        C689   1.280       .  A
O671       Cd680   2.079       .  S
O672        C686   1.284       .  A
O672       Cd676   2.110       .  S
O673        C684   1.270       .  A
O673       Cd676   2.057       .  S
Zn674       O685   1.991   1_556  S
Zn674       O687   2.064       .  S
Zn674       O679   1.907       .  S
O675        C686   1.284   1_554  A
O675       Cd680   2.110       .  S
Cd676       O678   2.084       .  S
Cd676       O679   1.971       .  S
Cd677       O681   2.048       .  S
Cd677       O690   2.044   1_556  S
Cd677       O679   1.948       .  S
O678        C688   1.280       .  A
O679       Cd680   1.973   1_556  S
Cd680       O682   2.061       .  S
O681        C688   1.277       .  A
C683        O687   1.278       .  A
C684        C730   1.443       .  S
C686        C755   1.491       .  S
C689        O690   1.277       .  A
O691        C707   1.272       .  A
O691       Zn697   1.993       .  S
C692        O708   1.272       .  A
C692        O705   1.270       .  A
O693        C706   1.278       .  A
O693       Cd700   2.114       .  S
O694        C712   1.280       .  A
O694       Cd703   2.085       .  S
O695        C709   1.283       .  A
O695       Cd699   2.103       .  S
O696        C707   1.270       .  A
O696       Cd699   2.059       .  S
Zn697       O708   1.993       .  S
Zn697       O710   2.057       .  S
Zn697       O702   1.909       .  S
O698        C709   1.284       .  A
O698       Cd703   2.109       .  S
Cd699       O701   2.080       .  S
Cd699       O702   1.973       .  S
Cd700       O704   2.044       .  S
Cd700       O713   2.047       .  S
Cd700       O702   1.949       .  S
O701        C711   1.279       .  A
O702       Cd703   1.973       .  S
Cd703       O705   2.060       .  S
O704        C711   1.277       .  A
C706        O710   1.277       .  A
C706        C729   1.496   1_554  S
C712        O713   1.277       .  A
C712        C803   1.464       .  S
O714        C730   1.270       .  A
O714       Zn720   1.988       .  S
C715        O731   1.271       .  A
C715        O728   1.270       .  A
O716        C729   1.278       .  A
O716       Cd723   2.111       .  S
O717        C735   1.280       .  A
O717       Cd726   2.081       .  S
O718        C732   1.284       .  A
O718       Cd722   2.113       .  S
O719        C730   1.269       .  A
O719       Cd722   2.060       .  S
Zn720       O731   1.987       .  S
Zn720       O733   2.063       .  S
Zn720       O725   1.905       .  S
O721        C732   1.284       .  A
O721       Cd726   2.110       .  S
Cd722       O724   2.082       .  S
Cd722       O725   1.973       .  S
Cd723       O727   2.043       .  S
Cd723       O736   2.043       .  S
Cd723       O725   1.949       .  S
O724        C734   1.280       .  A
O725       Cd726   1.972       .  S
Cd726       O728   2.061       .  S
O727        C734   1.276       .  A
C729        O733   1.278       .  A
C734        C827   1.462       .  S
C735        O736   1.276       .  A
O737        C753   1.271       .  A
O737       Zn743   1.988   1_554  S
C738        O754   1.271       .  A
C738        O751   1.270       .  A
C738        C807   1.444       .  S
O739        C752   1.278       .  A
O739       Cd746   2.116       .  S
O740        C758   1.279       .  A
O740       Cd749   2.081       .  S
O741        C755   1.284   1_554  A
O741       Cd745   2.111       .  S
O742        C753   1.270       .  A
O742       Cd745   2.061       .  S
Zn743       O754   1.987       .  S
Zn743       O756   2.058       .  S
Zn743       O748   1.908       .  S
O744        C755   1.284       .  A
O744       Cd749   2.111       .  S
Cd745       O747   2.082       .  S
Cd745       O748   1.973   1_554  S
Cd746       O750   2.045   1_556  S
Cd746       O759   2.047       .  S
Cd746       O748   1.951       .  S
O747        C757   1.280       .  A
O748       Cd749   1.976       .  S
Cd749       O751   2.061       .  S
O750        C757   1.277       .  A
C752        O756   1.277       .  A
C752        C775   1.496       .  S
C753        C799   1.445       .  S
C757        C873   1.463       .  S
C758        O759   1.277       .  A
O760        C776   1.271       .  A
O760       Zn766   1.987       .  S
C761        O777   1.271       .  A
C761        O774   1.270       .  A
C761        C784   1.444       .  S
O762        C775   1.278       .  A
O762       Cd769   2.113       .  S
O763        C781   1.281       .  A
O763       Cd772   2.087       .  S
O764        C778   1.284       .  A
O764       Cd768   2.112       .  S
O765        C776   1.270       .  A
O765       Cd768   2.061       .  S
Zn766       O777   1.988   1_556  S
Zn766       O779   2.062       .  S
Zn766       O771   1.909       .  S
O767        C778   1.285   1_554  A
O767       Cd772   2.115       .  S
Cd768       O770   2.082       .  S
Cd768       O771   1.977       .  S
Cd769       O773   2.045       .  S
Cd769       O782   2.045   1_556  S
Cd769       O771   1.953       .  S
O770        C780   1.280       .  A
O771       Cd772   1.975   1_556  S
Cd772       O774   2.062       .  S
O773        C780   1.277       .  A
C775        O779   1.277       .  A
C776        C822   1.443       .  S
C781        O782   1.276       .  A
C781        C849   1.464       .  S
O783        C799   1.271       .  A
O783       Zn789   1.987       .  S
C784        O800   1.271       .  A
C784        O797   1.270       .  A
O785        C798   1.279       .  A
O785       Cd792   2.116       .  S
O786        C804   1.280       .  A
O786       Cd795   2.080       .  S
O787        C801   1.285       .  A
O787       Cd791   2.112       .  S
O788        C799   1.270       .  A
O788       Cd791   2.061       .  S
Zn789       O800   1.989       .  S
Zn789       O802   2.063       .  S
Zn789       O794   1.908       .  S
O790        C801   1.284       .  A
O790       Cd795   2.112       .  S
Cd791       O793   2.084       .  S
Cd791       O794   1.973       .  S
Cd792       O796   2.049       .  S
Cd792       O805   2.047       .  S
Cd792       O794   1.949       .  S
O793        C803   1.280       .  A
O794       Cd795   1.974       .  S
Cd795       O797   2.063       .  S
O796        C803   1.277       .  A
C798        O802   1.277       .  A
C798        C821   1.497   1_554  S
C801        C893   1.492       .  S
C804        O805   1.277       .  A
O806        C822   1.271       .  A
O806       Zn812   1.990       .  S
C807        O823   1.271       .  A
C807        O820   1.269       .  A
O808        C821   1.278       .  A
O808       Cd815   2.114       .  S
O809        C827   1.279       .  A
O809       Cd818   2.078       .  S
O810        C824   1.284       .  A
O810       Cd814   2.110       .  S
O811        C822   1.270       .  A
O811       Cd814   2.058       .  S
Zn812       O823   1.992       .  S
Zn812       O825   2.066       .  S
Zn812       O817   1.909       .  S
O813        C824   1.283       .  A
O813       Cd818   2.107       .  S
Cd814       O816   2.084       .  S
Cd814       O817   1.974       .  S
Cd815       O819   2.048       .  S
Cd815       O828   2.047       .  S
Cd815       O817   1.951       .  S
O816        C826   1.280       .  A
O817       Cd818   1.974       .  S
Cd818       O820   2.058       .  S
O819        C826   1.277       .  A
C821        O825   1.278       .  A
C827        O828   1.277       .  A
O829        C845   1.272       .  A
O829       Zn835   1.993   1_455  S
C830        O846   1.272       .  A
C830        O843   1.269       .  A
C830        C899   1.443       .  S
O831        C844   1.278       .  A
O831       Cd838   2.113       .  S
O832        C850   1.279       .  A
O832       Cd841   2.079       .  S
O833        C847   1.283   1_455  A
O833       Cd837   2.108       .  S
O834        C845   1.270       .  A
O834       Cd837   2.055       .  S
Zn835       O846   1.993       .  S
Zn835       O848   2.060       .  S
Zn835       O840   1.908       .  S
O836        C847   1.284       .  A
O836       Cd841   2.110       .  S
Cd837       O839   2.082       .  S
Cd837       O840   1.970   1_455  S
Cd838       O842   2.050   1_655  S
Cd838       O851   2.045       .  S
Cd838       O840   1.950       .  S
O839        C849   1.279       .  A
O840       Cd841   1.973       .  S
Cd841       O843   2.056       .  S
O842        C849   1.277       .  A
C844        O848   1.277       .  A
C844        C867   1.495       .  S
C845        C891   1.444       .  S
C850        O851   1.277       .  A
O852        C868   1.270       .  A
O852       Zn858   1.988       .  S
C853        O869   1.271       .  A
C853        O866   1.270       .  A
C853        C876   1.445       .  S
O854        C867   1.278       .  A
O854       Cd861   2.110       .  S
O855        C873   1.280       .  A
O855       Cd864   2.081       .  S
O856        C870   1.284       .  A
O856       Cd860   2.107       .  S
O857        C868   1.270       .  A
O857       Cd860   2.064       .  S
Zn858       O869   1.988   1_655  S
Zn858       O871   2.063       .  S
Zn858       O863   1.908       .  S
O859        C870   1.284   1_455  A
O859       Cd864   2.107       .  S
Cd860       O862   2.080       .  S
Cd860       O863   1.974       .  S
Cd861       O865   2.046       .  S
Cd861       O874   2.046   1_655  S
Cd861       O863   1.947       .  S
O862        C872   1.279       .  A
O863       Cd864   1.972   1_655  S
Cd864       O866   2.064       .  S
O865        C872   1.276       .  A
C867        O871   1.278       .  A
C868        C914   1.445       .  S
C870       C1054   1.489       .  S
C873        O874   1.277       .  A
O875        C891   1.270       .  A
O875       Zn881   1.987       .  S
C876        O892   1.271       .  A
C876        O889   1.270       .  A
O877        C890   1.279       .  A
O877       Cd884   2.113       .  S
O878        C896   1.280       .  A
O878       Cd887   2.082       .  S
O879        C893   1.285       .  A
O879       Cd883   2.114       .  S
O880        C891   1.269       .  A
O880       Cd883   2.062       .  S
Zn881       O892   1.990       .  S
Zn881       O894   2.064       .  S
Zn881       O886   1.909       .  S
O882        C893   1.284       .  A
O882       Cd887   2.110       .  S
Cd883       O885   2.083       .  S
Cd883       O886   1.975       .  S
Cd884       O888   2.047       .  S
Cd884       O897   2.048       .  S
Cd884       O886   1.948       .  S
O885        C895   1.280       .  A
O886       Cd887   1.972       .  S
Cd887       O889   2.064       .  S
O888        C895   1.277       .  A
C890        O894   1.278       .  A
C890        C913   1.497   1_455  S
C896        O897   1.277       .  A
C896       C1079   1.463       .  S
O898        C914   1.272       .  A
O898       Zn904   1.992       .  S
C899        O915   1.271       .  A
C899        O912   1.269       .  A
O900        C913   1.278       .  A
O900       Cd907   2.114       .  S
O901        C919   1.280       .  A
O901       Cd910   2.081       .  S
O902        C916   1.283       .  A
O902       Cd906   2.108       .  S
O903        C914   1.270       .  A
O903       Cd906   2.058       .  S
Zn904       O915   1.991       .  S
Zn904       O917   2.063       .  S
Zn904       O909   1.908       .  S
O905        C916   1.284       .  A
O905       Cd910   2.109       .  S
Cd906       O908   2.080       .  S
Cd906       O909   1.969       .  S
Cd907       O911   2.048       .  S
Cd907       O920   2.045       .  S
Cd907       O909   1.949       .  S
O908        C918   1.279       .  A
O909       Cd910   1.975       .  S
Cd910       O912   2.057       .  S
O911        C918   1.277       .  A
C913        O917   1.277       .  A
C918       C1103   1.463       .  S
C919        O920   1.277       .  A
O921        C937   1.271       .  A
O921       Zn927   1.989   1_545  S
C922        O938   1.271       .  A
C922        O935   1.270       .  A
C922        C991   1.444       .  S
O923        C936   1.279       .  A
O923       Cd930   2.119       .  S
O924        C942   1.280       .  A
O924       Cd933   2.082       .  S
O925        C939   1.284   1_545  A
O925       Cd929   2.109       .  S
O926        C937   1.270       .  A
O926       Cd929   2.060       .  S
Zn927       O938   1.988       .  S
Zn927       O940   2.069       .  S
Zn927       O932   1.908       .  S
O928        C939   1.284       .  A
O928       Cd933   2.110       .  S
Cd929       O931   2.079       .  S
Cd929       O932   1.976   1_545  S
Cd930       O934   2.048   1_565  S
Cd930       O943   2.049       .  S
Cd930       O932   1.951       .  S
O931        C941   1.279       .  A
O932       Cd933   1.975       .  S
Cd933       O935   2.061       .  S
O934        C941   1.277       .  A
C936        O940   1.278       .  A
C936        C959   1.500       .  S
C937        C983   1.444       .  S
C941       C1034   1.462       .  S
C942        O943   1.277       .  A
O944        C960   1.271       .  A
O944       Zn950   1.989       .  S
C945        O961   1.271       .  A
C945        O958   1.270       .  A
C945        C968   1.444       .  S
O946        C959   1.279       .  A
O946       Cd953   2.121       .  S
O947        C965   1.279       .  A
O947       Cd956   2.081       .  S
O948        C962   1.284       .  A
O948       Cd952   2.109       .  S
O949        C960   1.270       .  A
O949       Cd952   2.062       .  S
Zn950       O961   1.986   1_565  S
Zn950       O963   2.066       .  S
Zn950       O955   1.908       .  S
O951        C962   1.284   1_545  A
O951       Cd956   2.107       .  S
Cd952       O954   2.081       .  S
Cd952       O955   1.976       .  S
Cd953       O957   2.048       .  S
Cd953       O966   2.051   1_565  S
Cd953       O955   1.948       .  S
O954        C964   1.280       .  A
O955       Cd956   1.975   1_565  S
Cd956       O958   2.061       .  S
O957        C964   1.277       .  A
C959        O963   1.278       .  A
C960       C1006   1.444       .  S
C965        O966   1.277       .  A
C965       C1056   1.465       .  S
O967        C983   1.271       .  A
O967       Zn973   1.988       .  S
C968        O984   1.271       .  A
C968        O981   1.270       .  A
O969        C982   1.279       .  A
O969       Cd976   2.119       .  S
O970        C988   1.280       .  A
O970       Cd979   2.083       .  S
O971        C985   1.284       .  A
O971       Cd975   2.111       .  S
O972        C983   1.270       .  A
O972       Cd975   2.062       .  S
Zn973       O984   1.988       .  S
Zn973       O986   2.059       .  S
Zn973       O978   1.908       .  S
O974        C985   1.284       .  A
O974       Cd979   2.109       .  S
Cd975       O977   2.083       .  S
Cd975       O978   1.977       .  S
Cd976       O980   2.047       .  S
Cd976       O989   2.046       .  S
Cd976       O978   1.953       .  S
O977        C987   1.279       .  A
O978       Cd979   1.976       .  S
Cd979       O981   2.060       .  S
O980        C987   1.277       .  A
C982        O986   1.277       .  A
C982       C1005   1.497   1_545  S
C985       C1077   1.491       .  S
C988        O989   1.277       .  A
O990       C1006   1.271       .  A
O990       Zn996   1.988       .  S
C991       O1007   1.271       .  A
C991       O1004   1.270       .  A
O992       C1005   1.279       .  A
O992       Cd999   2.118       .  S
O993       C1011   1.279       .  A
O993      Cd1002   2.079       .  S
O994       C1008   1.284       .  A
O994       Cd998   2.109       .  S
O995       C1006   1.270       .  A
O995       Cd998   2.061       .  S
Zn996      O1007   1.988       .  S
Zn996      O1009   2.060       .  S
Zn996      O1001   1.906       .  S
O997       C1008   1.283       .  A
O997      Cd1002   2.104       .  S
Cd998      O1000   2.083       .  S
Cd998      O1001   1.975       .  S
Cd999      O1003   2.046       .  S
Cd999      O1012   2.044       .  S
Cd999      O1001   1.950       .  S
O1000      C1010   1.280       .  A
O1001     Cd1002   1.976       .  S
Cd1002     O1004   2.060       .  S
O1003      C1010   1.277       .  A
C1005      O1009   1.277       .  A
C1011      O1012   1.277       .  A
O1013      C1029   1.271       .  A
O1013     Zn1019   1.986   1_655  S
C1014      O1030   1.271       .  A
C1014      O1027   1.269       .  A
C1014      C1060   1.442       .  S
O1015      C1028   1.278       .  A
O1015     Cd1022   2.112       .  S
O1016      C1034   1.280       .  A
O1016     Cd1025   2.081       .  S
O1017      C1031   1.284   1_655  A
O1017     Cd1021   2.110       .  S
O1018      C1029   1.270       .  A
O1018     Cd1021   2.057       .  S
Zn1019     O1030   1.986       .  S
Zn1019     O1032   2.063       .  S
Zn1019     O1024   1.906       .  S
O1020      C1031   1.284       .  A
O1020     Cd1025   2.111       .  S
Cd1021     O1023   2.082       .  S
Cd1021     O1024   1.974   1_655  S
Cd1022     O1026   2.043   1_455  S
Cd1022     O1035   2.043       .  S
Cd1022     O1024   1.950       .  S
O1023      C1033   1.280       .  A
O1024     Cd1025   1.972       .  S
Cd1025     O1027   2.058       .  S
O1026      C1033   1.276       .  A
C1028      O1032   1.278       .  A
C1028      C1051   1.496       .  S
C1029      C1098   1.442       .  S
C1034      O1035   1.276       .  A
O1036      C1052   1.271       .  A
O1036     Zn1042   1.992       .  S
C1037      O1053   1.272       .  A
C1037      O1050   1.270       .  A
C1037      C1083   1.445       .  S
O1038      C1051   1.279       .  A
O1038     Cd1045   2.114       .  S
O1039      C1057   1.279       .  A
O1039     Cd1048   2.080       .  S
O1040      C1054   1.284   1_455  A
O1040     Cd1044   2.109       .  S
O1041      C1052   1.270       .  A
O1041     Cd1044   2.064       .  S
Zn1042     O1053   1.992   1_455  S
Zn1042     O1055   2.057       .  S
Zn1042     O1047   1.909       .  S
O1043      C1054   1.284       .  A
O1043     Cd1048   2.105       .  S
Cd1044     O1046   2.087       .  S
Cd1044     O1047   1.974       .  S
Cd1045     O1049   2.047       .  S
Cd1045     O1058   2.044   1_455  S
Cd1045     O1047   1.949       .  S
O1046      C1056   1.280       .  A
O1047     Cd1048   1.973   1_455  S
Cd1048     O1050   2.061       .  S
O1049      C1056   1.276       .  A
C1051      O1055   1.277       .  A
C1052      C1075   1.446       .  S
C1057      O1058   1.276       .  A
O1059      C1075   1.271       .  A
O1059     Zn1065   1.993       .  S
C1060      O1076   1.271       .  A
C1060      O1073   1.269       .  A
O1061      C1074   1.279       .  A
O1061     Cd1068   2.117       .  S
O1062      C1080   1.280       .  A
O1062     Cd1071   2.085       .  S
O1063      C1077   1.285       .  A
O1063     Cd1067   2.112       .  S
O1064      C1075   1.270       .  A
O1064     Cd1067   2.064       .  S
Zn1065     O1076   1.989       .  S
Zn1065     O1078   2.064       .  S
Zn1065     O1070   1.909       .  S
O1066      C1077   1.284       .  A
O1066     Cd1071   2.108       .  S
Cd1067     O1069   2.082       .  S
Cd1067     O1070   1.972       .  S
Cd1068     O1072   2.047       .  S
Cd1068     O1081   2.050       .  S
Cd1068     O1070   1.948       .  S
O1069      C1079   1.280       .  A
O1070     Cd1071   1.975       .  S
Cd1071     O1073   2.056       .  S
O1072      C1079   1.277       .  A
C1074      O1078   1.278       .  A
C1074      C1097   1.498   1_455  S
C1080      O1081   1.277       .  A
O1082      C1098   1.271       .  A
O1082     Zn1088   1.987       .  S
C1083      O1099   1.271       .  A
C1083      O1096   1.270       .  A
O1084      C1097   1.278       .  A
O1084     Cd1091   2.114       .  S
O1085      C1103   1.280       .  A
O1085     Cd1094   2.082       .  S
O1086      C1100   1.284       .  A
O1086     Cd1090   2.107       .  S
O1087      C1098   1.269       .  A
O1087     Cd1090   2.056       .  S
Zn1088     O1099   1.990       .  S
Zn1088     O1101   2.068       .  S
Zn1088     O1093   1.907       .  S
O1089      C1100   1.285       .  A
O1089     Cd1094   2.115       .  S
Cd1090     O1092   2.079       .  S
Cd1090     O1093   1.973       .  S
Cd1091     O1095   2.044       .  S
Cd1091     O1104   2.046       .  S
Cd1091     O1093   1.948       .  S
O1092      C1102   1.279       .  A
O1093     Cd1094   1.973       .  S
Cd1094     O1096   2.062       .  S
O1095      C1102   1.277       .  A
C1097      O1101   1.278       .  A
C1103      O1104   1.277       .  A
