geometry optimzed in LAMMPS
_audit_creation_date              2020-11-30 
_audit_creation_method            'lammps2cif' 
_symmetry_space_group_name_H-M    'P1' 
_symmetry_Int_Tables_number       1 
_symmetry_cell_setting            triclinic 
loop_ 
_symmetry_equiv_pos_as_xyz 
  x,y,z 
_cell_length_a                    27.618494260288937 
_cell_length_b                    27.67475694463003 
_cell_length_c                    27.582439328316404 
_cell_angle_alpha                 83.76392808021089 
_cell_angle_beta                  84.11302272957404 
_cell_angle_gamma                 95.72948372835204 
loop_ 
_atom_site_label 
_atom_site_type_symbol 
_atom_site_fract_x 
_atom_site_fract_y 
_atom_site_fract_z 
_atom_site_charge 
C1          C  0.09549630  0.29650588  0.51353054     0.02880
C2          C  0.14632926  0.29755229  0.01009397    -0.13270
C3          C  0.16761333  0.25411469  0.00979816     0.00380
C4          C  0.13987015  0.21068494  0.00538783    -0.11800
C5          C  0.08910344  0.20726807  0.51300035     0.02870
C6          C  0.06616197  0.25067418  0.51654774    -0.11220
H7          H  0.16865692  0.33085083  0.01495071     0.08470
H8          H  0.15788431  0.17753450  0.00517832     0.06000
H9          H  0.02671170  0.24859774  0.52425815     0.05840
C10         C  0.40446646  0.17540267  0.11340273     0.02880
C11         C  0.35422653  0.17330577  0.11037023    -0.13270
C12         C  0.33175628  0.21600115  0.10768180     0.00380
C13         C  0.35712135  0.26019779  0.11367945    -0.11800
C14         C  0.40777442  0.26478364  0.11267242     0.02870
C15         C  0.43215042  0.22180449  0.11304365    -0.11220
H16         H  0.33379576  0.13946832  0.10391168     0.08470
H17         H  0.33796478  0.29265265  0.11148547     0.06000
H18         H  0.47176182  0.22462946  0.11005504     0.05840
C19         C  0.18782435  0.43485304  0.16189117     0.02880
C20         C  0.18569122  0.43350582  0.21288273    -0.13270
C21         C  0.22873659  0.43619047  0.23534360     0.00380
C22         C  0.27352942  0.43477476  0.20799191    -0.11800
C23         C  0.27764320  0.43860348  0.15709884     0.02870
C24         C  0.23434063  0.43836053  0.13341120    -0.11220
H25         H  0.15124878  0.43681164  0.23435939     0.08470
H26         H  0.30655959  0.43745016  0.22618576     0.06000
H27         H  0.23687237  0.44371931  0.09371044     0.05840
C28         C  0.31036846  0.03883376  0.46605284     0.02880
C29         C  0.31126788  0.04333750  0.41500232    -0.13270
C30         C  0.26746170  0.04206029  0.39371711     0.00380
C31         C  0.22344055  0.04307699  0.42255616    -0.11800
C32         C  0.22063929  0.03601289  0.47341662     0.02870
C33         C  0.26449659  0.03418502  0.99581215    -0.11220
H34         H  0.34515901  0.04063429  0.39231165     0.08470
H35         H  0.18977811  0.04168317  0.40533678     0.06000
H36         H  0.26285522  0.02647113  0.03533042     0.05840
C37         C  0.05143207  0.08351676  0.25319779     0.02880
C38         C  0.05357898  0.13422600  0.25223530    -0.13270
C39         C  0.05395680  0.15514283  0.29587188     0.00380
C40         C  0.05933423  0.12719207  0.33931922    -0.11800
C41         C  0.05228133  0.07648036  0.34270819     0.02870
C42         C  0.04906596  0.05393990  0.29914616    -0.11220
H43         H  0.04795717  0.15657922  0.21889147     0.08470
H44         H  0.05952822  0.14485485  0.37262402     0.06000
H45         H  0.04181662  0.01453001  0.30121704     0.05840
C46         C  0.44919432  0.39021892  0.37651088     0.02880
C47         C  0.44943131  0.41817684  0.32993667    -0.13270
C48         C  0.44975026  0.39421991  0.28685432     0.00380
C49         C  0.44844529  0.34358718  0.29149196    -0.11800
C50         C  0.45495767  0.31789692  0.33578551     0.02870
C51         C  0.45254655  0.34005213  0.37865303    -0.11220
H52         H  0.45259555  0.45773744  0.32704880     0.08470
H53         H  0.45044725  0.32476459  0.25889762     0.06000
H54         H  0.45938723  0.31949116  0.41259881     0.05840
O55         O  0.07900386  0.37823457  0.99088595    -0.80380
O56         O  0.44094366  0.45891294  0.22482602    -0.81930
O57         O  0.10675730  0.41116993  0.14334615    -0.78950
O58         O  0.47168770  0.32628515  0.12283280    -0.77340
O59         O  0.41131920  0.34687251  0.07599384    -0.79130
O60         O  0.14100410  0.49067836  0.12346090    -0.80060
O61         O  0.48722884  0.39817210  0.20505662    -0.81390
O62         O  0.05861919  0.34317450  0.07045727    -0.81680
Eu63       Eu  0.02267515  0.40422003  0.11724079     2.39330
O64         O  0.44398958  0.43142609  0.12015582    -0.89190
O65         O  0.07774234  0.45981322  0.06249593    -0.92790
C66         C  0.07550021  0.34182874  0.02532096     1.01900
C67         C  0.46007247  0.41929949  0.23595582     1.01720
C68         C  0.14274963  0.44567325  0.14028899     1.01660
C69         C  0.43243509  0.31560190  0.10309353     0.99520
H70         H  0.03794747  0.47878013  0.17464682     0.29270
O71         O  0.02592854  0.48220727  0.14298018    -1.01570
H72         H  0.49170192  0.37685314  0.02643657     0.29300
O73         O  0.49519184  0.40828085  0.03850667    -1.04120
O74         O  0.42332399  0.09484441  0.13837943    -0.81340
O75         O  0.05976322  0.01206934  0.40510552    -0.80880
O76         O  0.07394934  0.06636930  0.17161993    -0.79320
O77         O  0.33923012  0.42978155  0.09246467    -0.82660
O78         O  0.42463498  0.40961740  0.45695189    -0.80510
O79         O  0.15890128  0.04454087  0.03787559    -0.79160
O80         O  0.02548004  0.14536791  0.00438824    -0.80680
O81         O  0.39236302  0.06108158  0.48262902    -0.82610
O82         O  0.08481902  0.12665477  0.05335833    -0.79340
O83         O  0.35701423  0.48211332  0.00382198    -0.82020
O84         O  0.49458244  0.04658131  0.20674318    -0.77750
O85         O  0.14029072  0.49555783  0.47904690    -0.77790
O86         O  0.50458616  0.42806498  0.42322125    -0.77430
O87         O  0.35925261  0.47638575  0.15274228    -0.80930
O88         O  0.44235495  0.12838476  0.05816489    -0.80350
O89         O  0.51130405  0.07174791  0.42301302    -0.78680
Eu90       Eu  0.44744755  0.01017598  0.14631475     2.39770
Eu91       Eu  0.05239109  0.46189790  0.48407127     2.39570
Eu92       Eu  0.08037614  0.03875832  0.08835927     2.38400
Eu93       Eu  0.41730153  0.43490089  0.04118826     2.39880
Eu94       Eu  0.47567394  0.06698793  0.01068155     2.39790
O95         O  0.47358431  0.48876803  0.98600893    -0.93100
O96         O  0.50211112  0.06417412  0.08975396    -0.91990
C97         C  0.42644315  0.13062902  0.10332964     1.02070
C98         C  0.03978286  0.05091108  0.39306039     1.00790
C99         C  0.03963468  0.06340513  0.20794609     1.00180
C100        C  0.32825918  0.44932933  0.13175446     1.02200
C101        C  0.45948623  0.41218814  0.42119152     1.01110
C102        C  0.17056060  0.02390319  0.99945627     0.99960
C103        C  0.06394187  0.15697528  0.02495878     1.00020
C104        C  0.35590435  0.02701741  0.48613354     1.02630
H105        H  0.07765533  0.06361685  0.48619371     0.30000
O106        O  0.05487438  0.04112577  0.00894784    -1.05260
H107        H  0.38966395  0.02582111  0.07122206     0.32050
O108        O  0.42112851  0.01346452  0.06810378    -1.07820
C109        C  0.05594893  0.24155428  0.30780683    -0.20550
C110        C  0.02858763  0.19792170  0.30192675    -0.07120
C111        C  0.47682708  0.19217319  0.31203602     0.13750
C112        C  0.45341606  0.23125610  0.32679320    -0.20610
C113        C  0.48068723  0.27504855  0.33209903    -0.07130
C114        C  0.03243522  0.28073999  0.32239037     0.13740
C115        C  0.06267547  0.32848206  0.32605247    -0.23960
H116        H  0.09560124  0.24461500  0.30149607     0.15020
H117        H  0.41375412  0.22823763  0.33298805     0.15050
C118        C  0.44624984  0.14463952  0.30818502    -0.23910
H119        H  0.10245913  0.32621495  0.31701895     0.05260
H120        H  0.05675954  0.33828402  0.36401080     0.08490
H121        H  0.05211056  0.35803270  0.30002938     0.08490
H122        H  0.45667331  0.11482411  0.33395063     0.08470
H123        H  0.45174120  0.13508774  0.27011299     0.08470
H124        H  0.40653582  0.14706021  0.31750146     0.05250
C125        C  0.27502215  0.47083675  0.35045248    -0.20550
C126        C  0.26315252  0.01914180  0.34882587    -0.07120
C127        C  0.23479223  0.03742715  0.31273357     0.13750
C128        C  0.21888481  0.00678788  0.27930400    -0.20610
C129        C  0.23122031  0.45865638  0.28069137    -0.07130
C130        C  0.25891063  0.44016991  0.31723599     0.13740
C131        C  0.27219164  0.38844545  0.32182373    -0.23960
H132        H  0.29473304  0.45592193  0.37964009     0.15020
H133        H  0.19919321  0.02162506  0.25006740     0.15050
C134        C  0.22090181  0.08893000  0.30858982    -0.23910
H135        H  0.25846147  0.36985605  0.35912887     0.05260
H136        H  0.31265651  0.38894239  0.31616699     0.08490
H137        H  0.25594752  0.36652855  0.29495004     0.08490
H138        H  0.23704138  0.11086242  0.33550412     0.08470
H139        H  0.18039713  0.08794884  0.31453052     0.08470
H140        H  0.23424162  0.10782069  0.27131551     0.05250
C141        C  0.25422181  0.24209224  0.00706818    -0.20550
C142        C  0.21072328  0.24844304  0.03474740    -0.07120
C143        C  0.20548777  0.23937689  0.08669945     0.13750
C144        C  0.24498468  0.22514275  0.10996089    -0.20610
C145        C  0.28863331  0.21936312  0.08236188    -0.07130
C146        C  0.29382748  0.22803232  0.03044276     0.13740
C147        C  0.34145526  0.22382985  0.49986098    -0.23960
H148        H  0.25684807  0.24763993  0.46731453     0.15020
H149        H  0.24240173  0.21970934  0.14972141     0.15050
C150        C  0.15808676  0.24375023  0.11766436    -0.23910
H151        H  0.33878510  0.23219753  0.45997200     0.05260
H152        H  0.35151012  0.18602419  0.50645188     0.08490
H153        H  0.37106427  0.24994649  0.00959730     0.08490
H154        H  0.12819610  0.21789694  0.10809296     0.08470
H155        H  0.14828248  0.28167754  0.11155204     0.08470
H156        H  0.16094163  0.23507217  0.15747941     0.05250
C157        C  0.09549630  0.29650587  0.01353054     0.02880
C158        C  0.14632926  0.29755229  0.51009398    -0.13270
C159        C  0.16761333  0.25411469  0.50979817     0.00380
C160        C  0.13987016  0.21068494  0.50538785    -0.11800
C161        C  0.08910344  0.20726806  0.01300034     0.02870
C162        C  0.06616196  0.25067418  0.01654774    -0.11220
H163        H  0.16865692  0.33085084  0.51495072     0.08470
H164        H  0.15788431  0.17753450  0.50517835     0.06000
H165        H  0.02671170  0.24859773  0.02425816     0.05840
C166        C  0.40446646  0.17540267  0.61340274     0.02880
C167        C  0.35422652  0.17330577  0.61037025    -0.13270
C168        C  0.33175628  0.21600115  0.60768182     0.00380
C169        C  0.35712135  0.26019779  0.61367947    -0.11800
C170        C  0.40777442  0.26478364  0.61267243     0.02870
C171        C  0.43215042  0.22180449  0.61304365    -0.11220
H172        H  0.33379575  0.13946832  0.60391170     0.08470
H173        H  0.33796478  0.29265265  0.61148549     0.06000
H174        H  0.47176182  0.22462947  0.61005504     0.05840
C175        C  0.18782435  0.43485305  0.66189117     0.02880
C176        C  0.18569122  0.43350584  0.71288273    -0.13270
C177        C  0.22873659  0.43619049  0.73534361     0.00380
C178        C  0.27352942  0.43477478  0.70799192    -0.11800
C179        C  0.27764319  0.43860349  0.65709885     0.02870
C180        C  0.23434062  0.43836054  0.63341121    -0.11220
H181        H  0.15124878  0.43681167  0.73435939     0.08470
H182        H  0.30655959  0.43745018  0.72618576     0.06000
H183        H  0.23687237  0.44371930  0.59371044     0.05840
C184        C  0.31036846  0.03883375  0.96605284     0.02880
C185        C  0.31126788  0.04333749  0.91500231    -0.13270
C186        C  0.26746170  0.04206028  0.89371711     0.00380
C187        C  0.22344056  0.04307698  0.92255615    -0.11800
C188        C  0.22063929  0.03601288  0.97341662     0.02870
C189        C  0.26449659  0.03418503  0.49581216    -0.11220
H190        H  0.34515901  0.04063427  0.89231165     0.08470
H191        H  0.18977812  0.04168316  0.90533678     0.06000
H192        H  0.26285522  0.02647113  0.53533042     0.05840
C193        C  0.05143207  0.08351676  0.75319779     0.02880
C194        C  0.05357900  0.13422600  0.75223530    -0.13270
C195        C  0.05395682  0.15514282  0.79587188     0.00380
C196        C  0.05933425  0.12719206  0.83931922    -0.11800
C197        C  0.05228134  0.07648036  0.84270819     0.02870
C198        C  0.04906596  0.05393989  0.79914616    -0.11220
H199        H  0.04795719  0.15657922  0.71889147     0.08470
H200        H  0.05952824  0.14485484  0.87262402     0.06000
H201        H  0.04181661  0.01453001  0.80121705     0.05840
C202        C  0.44919434  0.39021892  0.87651088     0.02880
C203        C  0.44943131  0.41817684  0.82993667    -0.13270
C204        C  0.44975027  0.39421991  0.78685432     0.00380
C205        C  0.44844531  0.34358718  0.79149196    -0.11800
C206        C  0.45495770  0.31789692  0.83578551     0.02870
C207        C  0.45254657  0.34005213  0.87865303    -0.11220
H208        H  0.45259555  0.45773744  0.82704880     0.08470
H209        H  0.45044727  0.32476459  0.75889762     0.06000
H210        H  0.45938725  0.31949116  0.91259880     0.05840
O211        O  0.07900386  0.37823457  0.49088594    -0.80380
O212        O  0.44094367  0.45891294  0.72482602    -0.81930
O213        O  0.10675731  0.41116994  0.64334615    -0.78950
O214        O  0.47168771  0.32628516  0.62283280    -0.77340
O215        O  0.41131920  0.34687251  0.57599385    -0.79130
O216        O  0.14100410  0.49067836  0.62346090    -0.80060
O217        O  0.48722884  0.39817210  0.70505662    -0.81390
O218        O  0.05861919  0.34317450  0.57045726    -0.81680
Eu219      Eu  0.02267515  0.40422003  0.61724079     2.39330
O220        O  0.44398958  0.43142609  0.62015582    -0.89190
O221        O  0.07774234  0.45981322  0.56249593    -0.92790
C222        C  0.07550021  0.34182874  0.52532096     1.01900
C223        C  0.46007248  0.41929949  0.73595582     1.01720
C224        C  0.14274963  0.44567325  0.64028899     1.01660
C225        C  0.43243509  0.31560190  0.60309353     0.99520
H226        H  0.03794748  0.47878013  0.67464681     0.29270
O227        O  0.02592854  0.48220727  0.64298018    -1.01570
H228        H  0.49170192  0.37685314  0.52643657     0.29300
O229        O  0.49519184  0.40828085  0.53850667    -1.04120
O230        O  0.42332399  0.09484441  0.63837943    -0.81340
O231        O  0.05976322  0.01206933  0.90510552    -0.80880
O232        O  0.07394934  0.06636930  0.67161993    -0.79320
O233        O  0.33923012  0.42978155  0.59246468    -0.82660
O234        O  0.42463499  0.40961740  0.95695188    -0.80510
O235        O  0.15890128  0.04454087  0.53787559    -0.79160
O236        O  0.02548004  0.14536791  0.50438825    -0.80680
O237        O  0.39236302  0.06108157  0.98262902    -0.82610
O238        O  0.08481903  0.12665477  0.55335834    -0.79340
O239        O  0.35701423  0.48211331  0.50382199    -0.82020
O240        O  0.49458244  0.04658131  0.70674318    -0.77750
O241        O  0.14029073  0.49555783  0.97904690    -0.77790
O242        O  0.50458617  0.42806498  0.92322125    -0.77430
O243        O  0.35925261  0.47638576  0.65274229    -0.80930
O244        O  0.44235494  0.12838476  0.55816490    -0.80350
O245        O  0.51130405  0.07174791  0.92301302    -0.78680
Eu246      Eu  0.44744754  0.01017598  0.64631475     2.39770
Eu247      Eu  0.05239110  0.46189790  0.98407127     2.39570
Eu248      Eu  0.08037614  0.03875832  0.58835927     2.38400
Eu249      Eu  0.41730153  0.43490089  0.54118826     2.39880
Eu250      Eu  0.47567394  0.06698793  0.51068155     2.39790
O251        O  0.47358430  0.48876803  0.48600893    -0.93100
O252        O  0.50211112  0.06417412  0.58975396    -0.91990
C253        C  0.42644315  0.13062902  0.60332965     1.02070
C254        C  0.03978286  0.05091107  0.89306039     1.00790
C255        C  0.03963468  0.06340513  0.70794609     1.00180
C256        C  0.32825918  0.44932933  0.63175446     1.02200
C257        C  0.45948624  0.41218814  0.92119152     1.01110
C258        C  0.17056060  0.02390319  0.49945627     0.99960
C259        C  0.06394187  0.15697528  0.52495878     1.00020
C260        C  0.35590435  0.02701740  0.98613354     1.02630
H261        H  0.07765533  0.06361684  0.98619371     0.30000
O262        O  0.05487437  0.04112577  0.50894784    -1.05260
H263        H  0.38966395  0.02582111  0.57122207     0.32050
O264        O  0.42112851  0.01346452  0.56810379    -1.07820
C265        C  0.05594895  0.24155427  0.80780683    -0.20550
C266        C  0.02858765  0.19792170  0.80192675    -0.07120
C267        C  0.47682710  0.19217319  0.81203601     0.13750
C268        C  0.45341609  0.23125610  0.82679319    -0.20610
C269        C  0.48068725  0.27504855  0.83209903    -0.07130
C270        C  0.03243524  0.28073999  0.82239037     0.13740
C271        C  0.06267550  0.32848205  0.82605247    -0.23960
H272        H  0.09560126  0.24461500  0.80149608     0.15020
H273        H  0.41375415  0.22823764  0.83298804     0.15050
C274        C  0.44624986  0.14463953  0.80818501    -0.23910
H275        H  0.10245915  0.32621494  0.81701895     0.05260
H276        H  0.05675956  0.33828402  0.86401080     0.08490
H277        H  0.05211058  0.35803270  0.80002938     0.08490
H278        H  0.45667333  0.11482412  0.83395062     0.08470
H279        H  0.45174122  0.13508774  0.77011298     0.08470
H280        H  0.40653584  0.14706021  0.81750146     0.05250
C281        C  0.27502214  0.47083677  0.85045248    -0.20550
C282        C  0.26315251  0.01914178  0.84882587    -0.07120
C283        C  0.23479223  0.03742713  0.81273357     0.13750
C284        C  0.21888481  0.00678786  0.77930400    -0.20610
C285        C  0.23122031  0.45865641  0.78069137    -0.07130
C286        C  0.25891062  0.44016993  0.81723599     0.13740
C287        C  0.27219164  0.38844547  0.82182374    -0.23960
H288        H  0.29473304  0.45592195  0.87964009     0.15020
H289        H  0.19919321  0.02162505  0.75006740     0.15050
C290        C  0.22090182  0.08892998  0.80858982    -0.23910
H291        H  0.25846146  0.36985607  0.85912887     0.05260
H292        H  0.31265651  0.38894241  0.81616699     0.08490
H293        H  0.25594752  0.36652857  0.79495004     0.08490
H294        H  0.23704139  0.11086241  0.83550412     0.08470
H295        H  0.18039714  0.08794883  0.81453052     0.08470
H296        H  0.23424163  0.10782067  0.77131550     0.05250
C297        C  0.25422181  0.24209223  0.50706820    -0.20550
C298        C  0.21072328  0.24844305  0.53474742    -0.07120
C299        C  0.20548777  0.23937691  0.58669947     0.13750
C300        C  0.24498468  0.22514277  0.60996092    -0.20610
C301        C  0.28863331  0.21936312  0.58236190    -0.07130
C302        C  0.29382748  0.22803231  0.53044279     0.13740
C303        C  0.34145527  0.22382987  0.99986095    -0.23960
H304        H  0.25684807  0.24763994  0.96731451     0.15020
H305        H  0.24240173  0.21970937  0.64972144     0.15050
C306        C  0.15808677  0.24375027  0.61766437    -0.23910
H307        H  0.33878511  0.23219756  0.95997198     0.05260
H308        H  0.35151013  0.18602422  0.00645184     0.08490
H309        H  0.37106427  0.24994646  0.50959732     0.08490
H310        H  0.12819610  0.21789698  0.60809298     0.08470
H311        H  0.14828250  0.28167758  0.61155205     0.08470
H312        H  0.16094163  0.23507222  0.65747943     0.05250
C313        C  0.09549630  0.79650587  0.51353053     0.02880
C314        C  0.14632927  0.79755228  0.01009397    -0.13270
C315        C  0.16761333  0.75411468  0.00979816     0.00380
C316        C  0.13987015  0.71068493  0.00538783    -0.11800
C317        C  0.08910343  0.70726806  0.51300034     0.02870
C318        C  0.06616196  0.75067418  0.51654774    -0.11220
H319        H  0.16865692  0.83085083  0.01495070     0.08470
H320        H  0.15788430  0.67753449  0.00517833     0.06000
H321        H  0.02671169  0.74859774  0.52425815     0.05840
C322        C  0.40446646  0.67540267  0.11340274     0.02880
C323        C  0.35422652  0.67330578  0.11037023    -0.13270
C324        C  0.33175628  0.71600116  0.10768180     0.00380
C325        C  0.35712135  0.76019779  0.11367945    -0.11800
C326        C  0.40777443  0.76478364  0.11267242     0.02870
C327        C  0.43215042  0.72180449  0.11304365    -0.11220
H328        H  0.33379575  0.63946832  0.10391168     0.08470
H329        H  0.33796478  0.79265265  0.11148547     0.06000
H330        H  0.47176182  0.72462946  0.11005505     0.05840
C331        C  0.18782436  0.93485305  0.16189117     0.02880
C332        C  0.18569124  0.93350583  0.21288273    -0.13270
C333        C  0.22873660  0.93619048  0.23534360     0.00380
C334        C  0.27352943  0.93477477  0.20799191    -0.11800
C335        C  0.27764321  0.93860349  0.15709884     0.02870
C336        C  0.23434064  0.93836054  0.13341121    -0.11220
H337        H  0.15124879  0.93681165  0.23435939     0.08470
H338        H  0.30655960  0.93745017  0.22618576     0.06000
H339        H  0.23687238  0.94371931  0.09371044     0.05840
C340        C  0.31036845  0.53883375  0.46605284     0.02880
C341        C  0.31126787  0.54333749  0.41500232    -0.13270
C342        C  0.26746169  0.54206028  0.39371711     0.00380
C343        C  0.22344054  0.54307698  0.42255615    -0.11800
C344        C  0.22063928  0.53601288  0.47341662     0.02870
C345        C  0.26449658  0.53418502  0.99581216    -0.11220
H346        H  0.34515900  0.54063428  0.39231165     0.08470
H347        H  0.18977810  0.54168316  0.40533678     0.06000
H348        H  0.26285521  0.52647112  0.03533042     0.05840
C349        C  0.05143206  0.58351676  0.25319779     0.02880
C350        C  0.05357899  0.63422600  0.25223530    -0.13270
C351        C  0.05395681  0.65514282  0.29587188     0.00380
C352        C  0.05933424  0.62719206  0.33931922    -0.11800
C353        C  0.05228133  0.57648036  0.34270819     0.02870
C354        C  0.04906594  0.55393989  0.29914616    -0.11220
H355        H  0.04795718  0.65657922  0.21889147     0.08470
H356        H  0.05952823  0.64485484  0.37262402     0.06000
H357        H  0.04181660  0.51453001  0.30121705     0.05840
C358        C  0.44919434  0.89021892  0.37651088     0.02880
C359        C  0.44943132  0.91817685  0.32993666    -0.13270
C360        C  0.44975027  0.89421991  0.28685432     0.00380
C361        C  0.44844530  0.84358719  0.29149196    -0.11800
C362        C  0.45495768  0.81789692  0.33578551     0.02870
C363        C  0.45254656  0.84005214  0.37865303    -0.11220
H364        H  0.45259556  0.95773744  0.32704880     0.08470
H365        H  0.45044726  0.82476460  0.25889762     0.06000
H366        H  0.45938723  0.81949117  0.41259881     0.05840
O367        O  0.07900387  0.87823457  0.99088594    -0.80380
O368        O  0.44094367  0.95891294  0.22482602    -0.81930
O369        O  0.10675732  0.91116994  0.14334615    -0.78950
O370        O  0.47168771  0.82628516  0.12283280    -0.77340
O371        O  0.41131921  0.84687251  0.07599385    -0.79130
O372        O  0.14100411  0.99067836  0.12346090    -0.80060
O373        O  0.48722885  0.89817210  0.20505662    -0.81390
O374        O  0.05861920  0.84317450  0.07045726    -0.81680
Eu375      Eu  0.02267516  0.90422003  0.11724079     2.39330
O376        O  0.44398959  0.93142609  0.12015582    -0.89190
O377        O  0.07774236  0.95981322  0.06249593    -0.92790
C378        C  0.07550021  0.84182874  0.02532096     1.01900
C379        C  0.46007249  0.91929950  0.23595581     1.01720
C380        C  0.14274964  0.94567325  0.14028899     1.01660
C381        C  0.43243510  0.81560190  0.10309353     0.99520
H382        H  0.03794748  0.97878013  0.17464681     0.29270
O383        O  0.02592855  0.98220727  0.14298018    -1.01570
H384        H  0.49170193  0.87685314  0.02643657     0.29300
O385        O  0.49519185  0.90828085  0.03850667    -1.04120
O386        O  0.42332399  0.59484441  0.13837943    -0.81340
O387        O  0.05976321  0.51206933  0.40510552    -0.80880
O388        O  0.07394933  0.56636930  0.17161993    -0.79320
O389        O  0.33923013  0.92978155  0.09246467    -0.82660
O390        O  0.42463499  0.90961741  0.45695188    -0.80510
O391        O  0.15890127  0.54454087  0.03787559    -0.79160
O392        O  0.02548003  0.64536790  0.00438824    -0.80680
O393        O  0.39236301  0.56108157  0.48262902    -0.82610
O394        O  0.08481902  0.62665477  0.05335833    -0.79340
O395        O  0.35701424  0.98211331  0.00382198    -0.82020
O396        O  0.49458243  0.54658131  0.20674318    -0.77750
O397        O  0.14029074  0.99555784  0.47904690    -0.77790
O398        O  0.50458617  0.92806499  0.42322125    -0.77430
O399        O  0.35925262  0.97638576  0.15274228    -0.80930
O400        O  0.44235494  0.62838476  0.05816490    -0.80350
O401        O  0.51130403  0.57174791  0.42301302    -0.78680
Eu402      Eu  0.44744754  0.51017598  0.14631475     2.39770
Eu403      Eu  0.05239110  0.96189790  0.48407127     2.39570
Eu404      Eu  0.08037613  0.53875832  0.08835927     2.38400
Eu405      Eu  0.41730154  0.93490089  0.04118826     2.39880
Eu406      Eu  0.47567393  0.56698793  0.01068155     2.39790
O407        O  0.47358431  0.98876803  0.98600893    -0.93100
O408        O  0.50211111  0.56417412  0.08975396    -0.91990
C409        C  0.42644315  0.63062902  0.10332965     1.02070
C410        C  0.03978285  0.55091107  0.39306039     1.00790
C411        C  0.03963467  0.56340513  0.20794609     1.00180
C412        C  0.32825919  0.94932933  0.13175446     1.02200
C413        C  0.45948625  0.91218815  0.42119152     1.01110
C414        C  0.17056059  0.52390319  0.99945628     0.99960
C415        C  0.06394187  0.65697528  0.02495878     1.00020
C416        C  0.35590433  0.52701740  0.48613354     1.02630
H417        H  0.07765531  0.56361684  0.48619371     0.30000
O418        O  0.05487437  0.54112576  0.00894784    -1.05260
H419        H  0.38966394  0.52582111  0.07122207     0.32050
O420        O  0.42112850  0.51346452  0.06810378    -1.07820
C421        C  0.05594895  0.74155427  0.30780683    -0.20550
C422        C  0.02858764  0.69792170  0.30192676    -0.07120
C423        C  0.47682708  0.69217319  0.31203602     0.13750
C424        C  0.45341607  0.73125610  0.32679320    -0.20610
C425        C  0.48068724  0.77504856  0.33209904    -0.07130
C426        C  0.03243524  0.78073999  0.32239037     0.13740
C427        C  0.06267550  0.82848205  0.32605247    -0.23960
H428        H  0.09560126  0.74461500  0.30149607     0.15020
H429        H  0.41375413  0.72823764  0.33298805     0.15050
C430        C  0.44624983  0.64463953  0.30818502    -0.23910
H431        H  0.10245915  0.82621494  0.31701895     0.05260
H432        H  0.05675956  0.83828402  0.36401080     0.08490
H433        H  0.05211058  0.85803270  0.30002938     0.08490
H434        H  0.45667330  0.61482412  0.33395063     0.08470
H435        H  0.45174119  0.63508774  0.27011299     0.08470
H436        H  0.40653582  0.64706021  0.31750147     0.05250
C437        C  0.27502216  0.97083676  0.35045248    -0.20550
C438        C  0.26315251  0.51914178  0.34882587    -0.07120
C439        C  0.23479223  0.53742714  0.31273356     0.13750
C440        C  0.21888480  0.50678787  0.27930400    -0.20610
C441        C  0.23122033  0.95865640  0.28069137    -0.07130
C442        C  0.25891064  0.94016992  0.31723599     0.13740
C443        C  0.27219166  0.88844546  0.32182373    -0.23960
H444        H  0.29473306  0.95592194  0.37964008     0.15020
H445        H  0.19919320  0.52162505  0.25006739     0.15050
C446        C  0.22090181  0.58892999  0.30858982    -0.23910
H447        H  0.25846149  0.86985606  0.35912886     0.05260
H448        H  0.31265653  0.88894241  0.31616699     0.08490
H449        H  0.25594754  0.86652857  0.29495004     0.08490
H450        H  0.23704138  0.61086241  0.33550412     0.08470
H451        H  0.18039713  0.58794883  0.31453052     0.08470
H452        H  0.23424163  0.60782068  0.27131551     0.05250
C453        C  0.25422181  0.74209224  0.00706818    -0.20550
C454        C  0.21072328  0.74844303  0.03474740    -0.07120
C455        C  0.20548777  0.73937688  0.08669945     0.13750
C456        C  0.24498468  0.72514275  0.10996090    -0.20610
C457        C  0.28863331  0.71936312  0.08236188    -0.07130
C458        C  0.29382748  0.72803233  0.03044277     0.13740
C459        C  0.34145527  0.72382988  0.49986096    -0.23960
H460        H  0.25684807  0.74763994  0.46731451     0.15020
H461        H  0.24240173  0.71970935  0.14972142     0.15050
C462        C  0.15808676  0.74375022  0.11766436    -0.23910
H463        H  0.33878511  0.73219757  0.45997198     0.05260
H464        H  0.35151014  0.68602423  0.50645185     0.08490
H465        H  0.37106427  0.74994651  0.00959731     0.08490
H466        H  0.12819610  0.71789692  0.10809296     0.08470
H467        H  0.14828247  0.78167752  0.11155204     0.08470
H468        H  0.16094162  0.73507217  0.15747941     0.05250
C469        C  0.09549630  0.79650587  0.01353054     0.02880
C470        C  0.14632926  0.79755229  0.51009396    -0.13270
C471        C  0.16761332  0.75411468  0.50979816     0.00380
C472        C  0.13987015  0.71068493  0.50538783    -0.11800
C473        C  0.08910343  0.70726806  0.01300034     0.02870
C474        C  0.06616196  0.75067418  0.01654774    -0.11220
H475        H  0.16865692  0.83085083  0.51495070     0.08470
H476        H  0.15788430  0.67753449  0.50517832     0.06000
H477        H  0.02671170  0.74859773  0.02425815     0.05840
C478        C  0.40446646  0.67540267  0.61340274     0.02880
C479        C  0.35422652  0.67330578  0.61037023    -0.13270
C480        C  0.33175628  0.71600116  0.60768180     0.00380
C481        C  0.35712135  0.76019779  0.61367945    -0.11800
C482        C  0.40777442  0.76478364  0.61267242     0.02870
C483        C  0.43215041  0.72180449  0.61304365    -0.11220
H484        H  0.33379575  0.63946833  0.60391168     0.08470
H485        H  0.33796478  0.79265265  0.61148547     0.06000
H486        H  0.47176182  0.72462946  0.61005505     0.05840
C487        C  0.18782436  0.93485304  0.66189117     0.02880
C488        C  0.18569123  0.93350581  0.71288273    -0.13270
C489        C  0.22873660  0.93619047  0.73534360     0.00380
C490        C  0.27352942  0.93477476  0.70799191    -0.11800
C491        C  0.27764320  0.93860349  0.65709884     0.02870
C492        C  0.23434063  0.93836054  0.63341120    -0.11220
H493        H  0.15124879  0.93681164  0.73435938     0.08470
H494        H  0.30655960  0.93745016  0.72618576     0.06000
H495        H  0.23687238  0.94371931  0.59371044     0.05840
C496        C  0.31036845  0.53883376  0.96605284     0.02880
C497        C  0.31126787  0.54333751  0.91500232    -0.13270
C498        C  0.26746169  0.54206030  0.89371712     0.00380
C499        C  0.22344055  0.54307699  0.92255616    -0.11800
C500        C  0.22063929  0.53601289  0.97341662     0.02870
C501        C  0.26449658  0.53418502  0.49581215    -0.11220
H502        H  0.34515900  0.54063430  0.89231165     0.08470
H503        H  0.18977811  0.54168318  0.90533679     0.06000
H504        H  0.26285521  0.52647112  0.53533042     0.05840
C505        C  0.05143207  0.58351676  0.75319779     0.02880
C506        C  0.05357901  0.63422600  0.75223530    -0.13270
C507        C  0.05395683  0.65514282  0.79587188     0.00380
C508        C  0.05933426  0.62719206  0.83931922    -0.11800
C509        C  0.05228134  0.57648035  0.84270819     0.02870
C510        C  0.04906595  0.55393989  0.79914616    -0.11220
H511        H  0.04795720  0.65657922  0.71889147     0.08470
H512        H  0.05952825  0.64485483  0.87262402     0.06000
H513        H  0.04181659  0.51453000  0.80121705     0.05840
C514        C  0.44919434  0.89021892  0.87651088     0.02880
C515        C  0.44943132  0.91817684  0.82993667    -0.13270
C516        C  0.44975027  0.89421991  0.78685432     0.00380
C517        C  0.44844531  0.84358719  0.79149196    -0.11800
C518        C  0.45495769  0.81789692  0.83578551     0.02870
C519        C  0.45254656  0.84005213  0.87865303    -0.11220
H520        H  0.45259556  0.95773744  0.82704880     0.08470
H521        H  0.45044726  0.82476460  0.75889762     0.06000
H522        H  0.45938724  0.81949116  0.91259881     0.05840
O523        O  0.07900387  0.87823457  0.49088594    -0.80380
O524        O  0.44094367  0.95891294  0.72482602    -0.81930
O525        O  0.10675731  0.91116994  0.64334614    -0.78950
O526        O  0.47168771  0.82628516  0.62283280    -0.77340
O527        O  0.41131921  0.84687252  0.57599384    -0.79130
O528        O  0.14100411  0.99067836  0.62346090    -0.80060
O529        O  0.48722885  0.89817210  0.70505662    -0.81390
O530        O  0.05861920  0.84317450  0.57045726    -0.81680
Eu531      Eu  0.02267516  0.90422003  0.61724078     2.39330
O532        O  0.44398959  0.93142610  0.62015582    -0.89190
O533        O  0.07774235  0.95981322  0.56249593    -0.92790
C534        C  0.07550021  0.84182874  0.52532095     1.01900
C535        C  0.46007249  0.91929949  0.73595582     1.01720
C536        C  0.14274964  0.94567325  0.64028899     1.01660
C537        C  0.43243509  0.81560190  0.60309353     0.99520
H538        H  0.03794748  0.97878013  0.67464681     0.29270
O539        O  0.02592855  0.98220727  0.64298018    -1.01570
H540        H  0.49170193  0.87685314  0.52643656     0.29300
O541        O  0.49519185  0.90828085  0.53850667    -1.04120
O542        O  0.42332399  0.59484441  0.63837943    -0.81340
O543        O  0.05976321  0.51206933  0.90510552    -0.80880
O544        O  0.07394933  0.56636930  0.67161993    -0.79320
O545        O  0.33923013  0.92978156  0.59246467    -0.82660
O546        O  0.42463499  0.90961740  0.95695188    -0.80510
O547        O  0.15890127  0.54454087  0.53787559    -0.79160
O548        O  0.02548003  0.64536791  0.50438824    -0.80680
O549        O  0.39236301  0.56108157  0.98262902    -0.82610
O550        O  0.08481902  0.62665477  0.55335833    -0.79340
O551        O  0.35701424  0.98211332  0.50382198    -0.82020
O552        O  0.49458244  0.54658131  0.70674318    -0.77750
O553        O  0.14029074  0.99555783  0.97904690    -0.77790
O554        O  0.50458617  0.92806498  0.92322125    -0.77430
O555        O  0.35925262  0.97638575  0.65274229    -0.80930
O556        O  0.44235494  0.62838476  0.55816490    -0.80350
O557        O  0.51130404  0.57174791  0.92301302    -0.78680
Eu558      Eu  0.44744754  0.51017598  0.64631475     2.39770
Eu559      Eu  0.05239111  0.96189790  0.98407127     2.39570
Eu560      Eu  0.08037613  0.53875832  0.58835927     2.38400
Eu561      Eu  0.41730154  0.93490090  0.54118826     2.39880
Eu562      Eu  0.47567393  0.56698793  0.51068155     2.39790
O563        O  0.47358431  0.98876804  0.48600893    -0.93100
O564        O  0.50211111  0.56417412  0.58975396    -0.91990
C565        C  0.42644314  0.63062902  0.60332965     1.02070
C566        C  0.03978285  0.55091107  0.89306039     1.00790
C567        C  0.03963468  0.56340513  0.70794609     1.00180
C568        C  0.32825919  0.94932933  0.63175446     1.02200
C569        C  0.45948625  0.91218815  0.92119152     1.01110
C570        C  0.17056059  0.52390319  0.49945627     0.99960
C571        C  0.06394186  0.65697528  0.52495877     1.00020
C572        C  0.35590434  0.52701740  0.98613354     1.02630
H573        H  0.07765532  0.56361684  0.98619371     0.30000
O574        O  0.05487436  0.54112577  0.50894784    -1.05260
H575        H  0.38966394  0.52582111  0.57122207     0.32050
O576        O  0.42112850  0.51346452  0.56810379    -1.07820
C577        C  0.05594897  0.74155427  0.80780683    -0.20550
C578        C  0.02858766  0.69792170  0.80192676    -0.07120
C579        C  0.47682709  0.69217319  0.81203602     0.13750
C580        C  0.45341608  0.73125610  0.82679320    -0.20610
C581        C  0.48068724  0.77504855  0.83209904    -0.07130
C582        C  0.03243526  0.78073999  0.82239038     0.13740
C583        C  0.06267552  0.82848205  0.82605247    -0.23960
H584        H  0.09560128  0.74461499  0.80149608     0.15020
H585        H  0.41375413  0.72823764  0.83298804     0.15050
C586        C  0.44624984  0.64463952  0.80818502    -0.23910
H587        H  0.10245917  0.82621494  0.81701895     0.05260
H588        H  0.05675958  0.83828401  0.86401081     0.08490
H589        H  0.05211060  0.85803269  0.80002938     0.08490
H590        H  0.45667331  0.61482412  0.83395063     0.08470
H591        H  0.45174120  0.63508774  0.77011299     0.08470
H592        H  0.40653583  0.64706021  0.81750146     0.05250
C593        C  0.27502215  0.97083674  0.85045248    -0.20550
C594        C  0.26315251  0.51914180  0.84882588    -0.07120
C595        C  0.23479222  0.53742716  0.81273357     0.13750
C596        C  0.21888480  0.50678789  0.77930400    -0.20610
C597        C  0.23122032  0.95865638  0.78069137    -0.07130
C598        C  0.25891063  0.94016990  0.81723599     0.13740
C599        C  0.27219165  0.88844544  0.82182374    -0.23960
H600        H  0.29473305  0.95592192  0.87964009     0.15020
H601        H  0.19919320  0.52162507  0.75006740     0.15050
C602        C  0.22090181  0.58893001  0.80858983    -0.23910
H603        H  0.25846147  0.86985604  0.85912887     0.05260
H604        H  0.31265652  0.88894238  0.81616699     0.08490
H605        H  0.25594753  0.86652855  0.79495004     0.08490
H606        H  0.23704137  0.61086243  0.83550413     0.08470
H607        H  0.18039713  0.58794885  0.81453052     0.08470
H608        H  0.23424162  0.60782070  0.77131551     0.05250
C609        C  0.25422181  0.74209224  0.50706818    -0.20550
C610        C  0.21072328  0.74844303  0.53474740    -0.07120
C611        C  0.20548777  0.73937688  0.58669945     0.13750
C612        C  0.24498468  0.72514276  0.60996089    -0.20610
C613        C  0.28863331  0.71936312  0.58236188    -0.07130
C614        C  0.29382748  0.72803233  0.53044277     0.13740
C615        C  0.34145527  0.72382988  0.99986096    -0.23960
H616        H  0.25684807  0.74763995  0.96731451     0.15020
H617        H  0.24240172  0.71970935  0.64972142     0.15050
C618        C  0.15808676  0.74375022  0.61766436    -0.23910
H619        H  0.33878512  0.73219758  0.95997198     0.05260
H620        H  0.35151014  0.68602424  0.00645185     0.08490
H621        H  0.37106427  0.74994650  0.50959730     0.08490
H622        H  0.12819610  0.71789693  0.60809295     0.08470
H623        H  0.14828247  0.78167753  0.61155204     0.08470
H624        H  0.16094162  0.73507217  0.65747941     0.05250
C625        C  0.59549630  0.29650588  0.51353054     0.02880
C626        C  0.64632926  0.29755229  0.01009397    -0.13270
C627        C  0.66761333  0.25411469  0.00979816     0.00380
C628        C  0.63987015  0.21068494  0.00538783    -0.11800
C629        C  0.58910344  0.20726807  0.51300035     0.02870
C630        C  0.56616197  0.25067418  0.51654774    -0.11220
H631        H  0.66865692  0.33085083  0.01495071     0.08470
H632        H  0.65788431  0.17753450  0.00517832     0.06000
H633        H  0.52671170  0.24859774  0.52425815     0.05840
C634        C  0.90446646  0.17540266  0.11340274     0.02880
C635        C  0.85422652  0.17330577  0.11037023    -0.13270
C636        C  0.83175628  0.21600115  0.10768180     0.00380
C637        C  0.85712135  0.26019778  0.11367945    -0.11800
C638        C  0.90777442  0.26478363  0.11267242     0.02870
C639        C  0.93215042  0.22180449  0.11304365    -0.11220
H640        H  0.83379575  0.13946832  0.10391168     0.08470
H641        H  0.83796478  0.29265265  0.11148547     0.06000
H642        H  0.97176182  0.22462946  0.11005505     0.05840
C643        C  0.68782435  0.43485304  0.16189117     0.02880
C644        C  0.68569122  0.43350582  0.21288273    -0.13270
C645        C  0.72873659  0.43619047  0.23534361     0.00380
C646        C  0.77352942  0.43477476  0.20799191    -0.11800
C647        C  0.77764320  0.43860349  0.15709884     0.02870
C648        C  0.73434063  0.43836054  0.13341121    -0.11220
H649        H  0.65124878  0.43681164  0.23435939     0.08470
H650        H  0.80655959  0.43745016  0.22618576     0.06000
H651        H  0.73687237  0.44371931  0.09371044     0.05840
C652        C  0.81036846  0.03883376  0.46605284     0.02880
C653        C  0.81126788  0.04333750  0.41500232    -0.13270
C654        C  0.76746170  0.04206029  0.39371711     0.00380
C655        C  0.72344056  0.04307699  0.42255616    -0.11800
C656        C  0.72063929  0.03601289  0.47341662     0.02870
C657        C  0.76449659  0.03418502  0.99581215    -0.11220
H658        H  0.84515901  0.04063429  0.39231165     0.08470
H659        H  0.68977811  0.04168317  0.40533678     0.06000
H660        H  0.76285522  0.02647113  0.03533042     0.05840
C661        C  0.55143207  0.08351676  0.25319779     0.02880
C662        C  0.55357899  0.13422600  0.25223530    -0.13270
C663        C  0.55395681  0.15514283  0.29587188     0.00380
C664        C  0.55933424  0.12719207  0.33931922    -0.11800
C665        C  0.55228134  0.07648036  0.34270819     0.02870
C666        C  0.54906596  0.05393990  0.29914616    -0.11220
H667        H  0.54795718  0.15657922  0.21889147     0.08470
H668        H  0.55952823  0.14485485  0.37262401     0.06000
H669        H  0.54181661  0.01453001  0.30121704     0.05840
C670        C  0.94919432  0.39021892  0.37651088     0.02880
C671        C  0.94943130  0.41817684  0.32993667    -0.13270
C672        C  0.94975025  0.39421991  0.28685432     0.00380
C673        C  0.94844528  0.34358719  0.29149196    -0.11800
C674        C  0.95495766  0.31789692  0.33578551     0.02870
C675        C  0.95254654  0.34005213  0.37865303    -0.11220
H676        H  0.95259555  0.45773744  0.32704881     0.08470
H677        H  0.95044724  0.32476460  0.25889762     0.06000
H678        H  0.95938722  0.31949116  0.41259881     0.05840
O679        O  0.57900386  0.37823457  0.99088594    -0.80380
O680        O  0.94094366  0.45891294  0.22482602    -0.81930
O681        O  0.60675730  0.41116994  0.14334615    -0.78950
O682        O  0.97168770  0.32628515  0.12283280    -0.77340
O683        O  0.91131920  0.34687251  0.07599385    -0.79130
O684        O  0.64100410  0.49067836  0.12346090    -0.80060
O685        O  0.98722884  0.39817210  0.20505662    -0.81390
O686        O  0.55861919  0.34317450  0.07045726    -0.81680
Eu687      Eu  0.52267515  0.40422003  0.11724079     2.39330
O688        O  0.94398958  0.43142609  0.12015582    -0.89190
O689        O  0.57774235  0.45981322  0.06249593    -0.92790
C690        C  0.57550021  0.34182874  0.02532096     1.01900
C691        C  0.96007247  0.41929949  0.23595582     1.01720
C692        C  0.64274963  0.44567325  0.14028899     1.01660
C693        C  0.93243509  0.31560189  0.10309353     0.99520
H694        H  0.53794747  0.47878013  0.17464682     0.29270
O695        O  0.52592854  0.48220727  0.14298018    -1.01570
H696        H  0.99170192  0.37685314  0.02643657     0.29300
O697        O  0.99519184  0.40828085  0.03850667    -1.04120
O698        O  0.92332399  0.09484441  0.13837943    -0.81340
O699        O  0.55976322  0.01206934  0.40510552    -0.80880
O700        O  0.57394934  0.06636930  0.17161993    -0.79320
O701        O  0.83923012  0.42978155  0.09246467    -0.82660
O702        O  0.92463498  0.40961740  0.45695189    -0.80510
O703        O  0.65890128  0.04454087  0.03787559    -0.79160
O704        O  0.52548004  0.14536791  0.00438824    -0.80680
O705        O  0.89236302  0.06108157  0.48262902    -0.82610
O706        O  0.58481903  0.12665477  0.05335833    -0.79340
O707        O  0.85701423  0.48211332  0.00382199    -0.82020
O708        O  0.99458244  0.04658131  0.20674318    -0.77750
O709        O  0.64029072  0.49555783  0.47904690    -0.77790
O710        O  0.00458616  0.42806498  0.42322125    -0.77430
O711        O  0.85925261  0.47638575  0.15274229    -0.80930
O712        O  0.94235495  0.12838476  0.05816489    -0.80350
O713        O  0.01130404  0.07174791  0.42301302    -0.78680
Eu714      Eu  0.94744755  0.01017598  0.14631475     2.39770
Eu715      Eu  0.55239109  0.46189790  0.48407127     2.39570
Eu716      Eu  0.58037614  0.03875832  0.08835927     2.38400
Eu717      Eu  0.91730153  0.43490089  0.04118826     2.39880
Eu718      Eu  0.97567394  0.06698793  0.01068155     2.39790
O719        O  0.97358431  0.48876803  0.98600893    -0.93100
O720        O  0.00211112  0.06417412  0.08975396    -0.91990
C721        C  0.92644315  0.13062902  0.10332964     1.02070
C722        C  0.53978286  0.05091108  0.39306039     1.00790
C723        C  0.53963468  0.06340513  0.20794609     1.00180
C724        C  0.82825918  0.44932933  0.13175446     1.02200
C725        C  0.95948623  0.41218814  0.42119152     1.01110
C726        C  0.67056060  0.02390319  0.99945627     0.99960
C727        C  0.56394187  0.15697528  0.02495878     1.00020
C728        C  0.85590435  0.02701741  0.48613354     1.02630
H729        H  0.57765533  0.06361684  0.48619371     0.30000
O730        O  0.55487438  0.04112577  0.00894784    -1.05260
H731        H  0.88966395  0.02582111  0.07122206     0.32050
O732        O  0.92112851  0.01346452  0.06810378    -1.07820
C733        C  0.55594894  0.24155428  0.30780683    -0.20550
C734        C  0.52858763  0.19792170  0.30192675    -0.07120
C735        C  0.97682707  0.19217319  0.31203602     0.13750
C736        C  0.95341606  0.23125610  0.32679320    -0.20610
C737        C  0.98068722  0.27504855  0.33209904    -0.07130
C738        C  0.53243523  0.28073999  0.32239037     0.13740
C739        C  0.56267548  0.32848206  0.32605246    -0.23960
H740        H  0.59560125  0.24461500  0.30149607     0.15020
H741        H  0.91375411  0.22823763  0.33298805     0.15050
C742        C  0.94624983  0.14463952  0.30818502    -0.23910
H743        H  0.60245914  0.32621495  0.31701894     0.05260
H744        H  0.55675955  0.33828402  0.36401080     0.08490
H745        H  0.55211057  0.35803270  0.30002938     0.08490
H746        H  0.95667330  0.11482411  0.33395063     0.08470
H747        H  0.95174119  0.13508774  0.27011299     0.08470
H748        H  0.90653582  0.14706021  0.31750147     0.05250
C749        C  0.77502215  0.47083675  0.35045248    -0.20550
C750        C  0.76315252  0.01914179  0.34882587    -0.07120
C751        C  0.73479223  0.03742715  0.31273357     0.13750
C752        C  0.71888481  0.00678788  0.27930400    -0.20610
C753        C  0.73122031  0.45865639  0.28069137    -0.07130
C754        C  0.75891063  0.44016991  0.31723599     0.13740
C755        C  0.77219164  0.38844545  0.32182374    -0.23960
H756        H  0.79473304  0.45592193  0.37964009     0.15020
H757        H  0.69919321  0.02162506  0.25006740     0.15050
C758        C  0.72090181  0.08892999  0.30858982    -0.23910
H759        H  0.75846147  0.36985605  0.35912887     0.05260
H760        H  0.81265651  0.38894239  0.31616699     0.08490
H761        H  0.75594752  0.36652856  0.29495004     0.08490
H762        H  0.73704138  0.11086242  0.33550412     0.08470
H763        H  0.68039713  0.08794884  0.31453052     0.08470
H764        H  0.73424162  0.10782068  0.27131551     0.05250
C765        C  0.75422181  0.24209224  0.00706818    -0.20550
C766        C  0.71072328  0.24844304  0.03474740    -0.07120
C767        C  0.70548777  0.23937689  0.08669945     0.13750
C768        C  0.74498468  0.22514275  0.10996090    -0.20610
C769        C  0.78863331  0.21936312  0.08236188    -0.07130
C770        C  0.79382748  0.22803232  0.03044277     0.13740
C771        C  0.84145526  0.22382985  0.49986098    -0.23960
H772        H  0.75684807  0.24763993  0.46731453     0.15020
H773        H  0.74240173  0.21970935  0.14972142     0.15050
C774        C  0.65808676  0.24375024  0.11766436    -0.23910
H775        H  0.83878511  0.23219753  0.45997200     0.05260
H776        H  0.85151012  0.18602419  0.50645188     0.08490
H777        H  0.87106427  0.24994649  0.00959730     0.08490
H778        H  0.62819610  0.21789694  0.10809296     0.08470
H779        H  0.64828248  0.28167754  0.11155204     0.08470
H780        H  0.66094163  0.23507218  0.15747941     0.05250
C781        C  0.59549630  0.29650587  0.01353054     0.02880
C782        C  0.64632927  0.29755229  0.51009398    -0.13270
C783        C  0.66761333  0.25411469  0.50979817     0.00380
C784        C  0.63987016  0.21068494  0.50538785    -0.11800
C785        C  0.58910344  0.20726807  0.01300034     0.02870
C786        C  0.56616196  0.25067418  0.01654774    -0.11220
H787        H  0.66865692  0.33085084  0.51495071     0.08470
H788        H  0.65788431  0.17753450  0.50517835     0.06000
H789        H  0.52671170  0.24859773  0.02425815     0.05840
C790        C  0.90446646  0.17540267  0.61340275     0.02880
C791        C  0.85422652  0.17330577  0.61037025    -0.13270
C792        C  0.83175627  0.21600115  0.60768182     0.00380
C793        C  0.85712134  0.26019779  0.61367947    -0.11800
C794        C  0.90777442  0.26478364  0.61267243     0.02870
C795        C  0.93215042  0.22180449  0.61304365    -0.11220
H796        H  0.83379575  0.13946832  0.60391170     0.08470
H797        H  0.83796478  0.29265265  0.61148549     0.06000
H798        H  0.97176182  0.22462946  0.61005504     0.05840
C799        C  0.68782435  0.43485305  0.66189117     0.02880
C800        C  0.68569122  0.43350584  0.71288274    -0.13270
C801        C  0.72873659  0.43619050  0.73534361     0.00380
C802        C  0.77352942  0.43477478  0.70799192    -0.11800
C803        C  0.77764319  0.43860349  0.65709885     0.02870
C804        C  0.73434062  0.43836054  0.63341121    -0.11220
H805        H  0.65124878  0.43681167  0.73435939     0.08470
H806        H  0.80655959  0.43745018  0.72618576     0.06000
H807        H  0.73687237  0.44371930  0.59371044     0.05840
C808        C  0.81036846  0.03883375  0.96605284     0.02880
C809        C  0.81126788  0.04333749  0.91500231    -0.13270
C810        C  0.76746170  0.04206027  0.89371711     0.00380
C811        C  0.72344056  0.04307698  0.92255615    -0.11800
C812        C  0.72063929  0.03601288  0.97341662     0.02870
C813        C  0.76449659  0.03418503  0.49581215    -0.11220
H814        H  0.84515901  0.04063427  0.89231165     0.08470
H815        H  0.68977812  0.04168316  0.90533678     0.06000
H816        H  0.76285522  0.02647113  0.53533042     0.05840
C817        C  0.55143207  0.08351676  0.75319779     0.02880
C818        C  0.55357901  0.13422600  0.75223530    -0.13270
C819        C  0.55395683  0.15514282  0.79587188     0.00380
C820        C  0.55933426  0.12719206  0.83931922    -0.11800
C821        C  0.55228134  0.07648036  0.84270819     0.02870
C822        C  0.54906596  0.05393989  0.79914616    -0.11220
H823        H  0.54795720  0.15657922  0.71889147     0.08470
H824        H  0.55952825  0.14485484  0.87262402     0.06000
H825        H  0.54181661  0.01453001  0.80121704     0.05840
C826        C  0.94919433  0.39021892  0.87651088     0.02880
C827        C  0.94943131  0.41817684  0.82993667    -0.13270
C828        C  0.94975027  0.39421991  0.78685432     0.00380
C829        C  0.94844530  0.34358718  0.79149196    -0.11800
C830        C  0.95495769  0.31789692  0.83578551     0.02870
C831        C  0.95254656  0.34005213  0.87865303    -0.11220
H832        H  0.95259555  0.45773744  0.82704881     0.08470
H833        H  0.95044726  0.32476460  0.75889762     0.06000
H834        H  0.95938724  0.31949116  0.91259881     0.05840
O835        O  0.57900386  0.37823457  0.49088594    -0.80380
O836        O  0.94094367  0.45891294  0.72482603    -0.81930
O837        O  0.60675731  0.41116994  0.64334615    -0.78950
O838        O  0.97168771  0.32628516  0.62283281    -0.77340
O839        O  0.91131920  0.34687251  0.57599385    -0.79130
O840        O  0.64100410  0.49067836  0.62346090    -0.80060
O841        O  0.98722884  0.39817210  0.70505662    -0.81390
O842        O  0.55861919  0.34317450  0.57045726    -0.81680
Eu843      Eu  0.52267515  0.40422003  0.61724078     2.39330
O844        O  0.94398958  0.43142609  0.62015582    -0.89190
O845        O  0.57774235  0.45981323  0.56249593    -0.92790
C846        C  0.57550021  0.34182874  0.52532095     1.01900
C847        C  0.96007248  0.41929949  0.73595582     1.01720
C848        C  0.64274963  0.44567325  0.64028899     1.01660
C849        C  0.93243509  0.31560190  0.60309354     0.99520
H850        H  0.53794748  0.47878013  0.67464681     0.29270
O851        O  0.52592854  0.48220727  0.64298018    -1.01570
H852        H  0.99170192  0.37685314  0.52643657     0.29300
O853        O  0.99519184  0.40828085  0.53850667    -1.04120
O854        O  0.92332399  0.09484441  0.63837943    -0.81340
O855        O  0.55976322  0.01206933  0.90510552    -0.80880
O856        O  0.57394934  0.06636930  0.67161993    -0.79320
O857        O  0.83923012  0.42978155  0.59246468    -0.82660
O858        O  0.92463498  0.40961740  0.95695189    -0.80510
O859        O  0.65890128  0.04454087  0.53787559    -0.79160
O860        O  0.52548004  0.14536791  0.50438825    -0.80680
O861        O  0.89236302  0.06108157  0.98262902    -0.82610
O862        O  0.58481903  0.12665477  0.55335833    -0.79340
O863        O  0.85701422  0.48211331  0.50382199    -0.82020
O864        O  0.99458244  0.04658131  0.70674318    -0.77750
O865        O  0.64029073  0.49555783  0.97904690    -0.77790
O866        O  0.00458616  0.42806498  0.92322126    -0.77430
O867        O  0.85925261  0.47638576  0.65274229    -0.80930
O868        O  0.94235494  0.12838476  0.55816490    -0.80350
O869        O  0.01130405  0.07174791  0.92301302    -0.78680
Eu870      Eu  0.94744754  0.01017598  0.64631475     2.39770
Eu871      Eu  0.55239110  0.46189790  0.98407127     2.39570
Eu872      Eu  0.58037614  0.03875832  0.58835927     2.38400
Eu873      Eu  0.91730153  0.43490089  0.54118826     2.39880
Eu874      Eu  0.97567394  0.06698793  0.51068156     2.39790
O875        O  0.97358430  0.48876803  0.48600893    -0.93100
O876        O  0.00211112  0.06417412  0.58975396    -0.91990
C877        C  0.92644315  0.13062902  0.60332965     1.02070
C878        C  0.53978286  0.05091107  0.89306039     1.00790
C879        C  0.53963468  0.06340513  0.70794609     1.00180
C880        C  0.82825918  0.44932933  0.63175446     1.02200
C881        C  0.95948624  0.41218814  0.92119152     1.01110
C882        C  0.67056060  0.02390319  0.49945627     0.99960
C883        C  0.56394188  0.15697528  0.52495878     1.00020
C884        C  0.85590435  0.02701740  0.98613354     1.02630
H885        H  0.57765533  0.06361684  0.98619371     0.30000
O886        O  0.55487438  0.04112577  0.50894784    -1.05260
H887        H  0.88966395  0.02582111  0.57122207     0.32050
O888        O  0.92112851  0.01346452  0.56810379    -1.07820
C889        C  0.55594896  0.24155427  0.80780683    -0.20550
C890        C  0.52858766  0.19792170  0.80192675    -0.07120
C891        C  0.97682709  0.19217319  0.81203601     0.13750
C892        C  0.95341608  0.23125610  0.82679320    -0.20610
C893        C  0.98068724  0.27504855  0.83209903    -0.07130
C894        C  0.53243525  0.28073999  0.82239037     0.13740
C895        C  0.56267551  0.32848205  0.82605247    -0.23960
H896        H  0.59560127  0.24461500  0.80149608     0.15020
H897        H  0.91375414  0.22823763  0.83298804     0.15050
C898        C  0.94624985  0.14463952  0.80818502    -0.23910
H899        H  0.60245916  0.32621494  0.81701895     0.05260
H900        H  0.55675957  0.33828402  0.86401080     0.08490
H901        H  0.55211060  0.35803270  0.80002938     0.08490
H902        H  0.95667332  0.11482411  0.83395062     0.08470
H903        H  0.95174121  0.13508774  0.77011299     0.08470
H904        H  0.90653584  0.14706021  0.81750146     0.05250
C905        C  0.77502214  0.47083677  0.85045248    -0.20550
C906        C  0.76315252  0.01914178  0.84882587    -0.07120
C907        C  0.73479223  0.03742713  0.81273356     0.13750
C908        C  0.71888481  0.00678786  0.77930400    -0.20610
C909        C  0.73122031  0.45865641  0.78069137    -0.07130
C910        C  0.75891062  0.44016993  0.81723599     0.13740
C911        C  0.77219163  0.38844547  0.82182374    -0.23960
H912        H  0.79473304  0.45592195  0.87964009     0.15020
H913        H  0.69919321  0.02162504  0.75006739     0.15050
C914        C  0.72090182  0.08892998  0.80858982    -0.23910
H915        H  0.75846146  0.36985607  0.85912887     0.05260
H916        H  0.81265650  0.38894241  0.81616700     0.08490
H917        H  0.75594751  0.36652857  0.79495004     0.08490
H918        H  0.73704139  0.11086240  0.83550412     0.08470
H919        H  0.68039714  0.08794883  0.81453052     0.08470
H920        H  0.73424164  0.10782067  0.77131550     0.05250
C921        C  0.75422181  0.24209223  0.50706820    -0.20550
C922        C  0.71072328  0.24844305  0.53474742    -0.07120
C923        C  0.70548777  0.23937691  0.58669947     0.13750
C924        C  0.74498468  0.22514277  0.60996092    -0.20610
C925        C  0.78863331  0.21936312  0.58236190    -0.07130
C926        C  0.79382748  0.22803231  0.53044279     0.13740
C927        C  0.84145527  0.22382987  0.99986096    -0.23960
H928        H  0.75684807  0.24763994  0.96731451     0.15020
H929        H  0.74240173  0.21970937  0.64972144     0.15050
C930        C  0.65808677  0.24375027  0.61766437    -0.23910
H931        H  0.83878511  0.23219756  0.95997198     0.05260
H932        H  0.85151013  0.18602422  0.00645185     0.08490
H933        H  0.87106427  0.24994646  0.50959732     0.08490
H934        H  0.62819610  0.21789698  0.60809298     0.08470
H935        H  0.64828250  0.28167758  0.61155205     0.08470
H936        H  0.66094163  0.23507222  0.65747942     0.05250
C937        C  0.59549630  0.79650587  0.51353054     0.02880
C938        C  0.64632927  0.79755228  0.01009397    -0.13270
C939        C  0.66761333  0.75411468  0.00979816     0.00380
C940        C  0.63987015  0.71068493  0.00538783    -0.11800
C941        C  0.58910343  0.70726806  0.51300034     0.02870
C942        C  0.56616196  0.75067418  0.51654774    -0.11220
H943        H  0.66865692  0.83085083  0.01495071     0.08470
H944        H  0.65788431  0.67753449  0.00517833     0.06000
H945        H  0.52671169  0.74859774  0.52425815     0.05840
C946        C  0.90446646  0.67540267  0.11340274     0.02880
C947        C  0.85422652  0.67330578  0.11037023    -0.13270
C948        C  0.83175628  0.71600116  0.10768180     0.00380
C949        C  0.85712135  0.76019779  0.11367945    -0.11800
C950        C  0.90777443  0.76478364  0.11267242     0.02870
C951        C  0.93215042  0.72180449  0.11304365    -0.11220
H952        H  0.83379575  0.63946832  0.10391168     0.08470
H953        H  0.83796478  0.79265265  0.11148547     0.06000
H954        H  0.97176182  0.72462946  0.11005505     0.05840
C955        C  0.68782436  0.93485305  0.16189117     0.02880
C956        C  0.68569123  0.93350582  0.21288273    -0.13270
C957        C  0.72873660  0.93619048  0.23534360     0.00380
C958        C  0.77352943  0.93477477  0.20799191    -0.11800
C959        C  0.77764321  0.93860349  0.15709884     0.02870
C960        C  0.73434064  0.93836054  0.13341120    -0.11220
H961        H  0.65124879  0.93681165  0.23435939     0.08470
H962        H  0.80655960  0.93745017  0.22618576     0.06000
H963        H  0.73687238  0.94371931  0.09371044     0.05840
C964        C  0.81036845  0.53883375  0.46605284     0.02880
C965        C  0.81126787  0.54333749  0.41500232    -0.13270
C966        C  0.76746169  0.54206028  0.39371712     0.00380
C967        C  0.72344055  0.54307698  0.42255616    -0.11800
C968        C  0.72063928  0.53601288  0.47341662     0.02870
C969        C  0.76449658  0.53418502  0.99581216    -0.11220
H970        H  0.84515900  0.54063428  0.39231165     0.08470
H971        H  0.68977811  0.54168316  0.40533678     0.06000
H972        H  0.76285521  0.52647112  0.03533042     0.05840
C973        C  0.55143206  0.58351676  0.25319779     0.02880
C974        C  0.55357898  0.63422600  0.25223530    -0.13270
C975        C  0.55395681  0.65514282  0.29587188     0.00380
C976        C  0.55933423  0.62719206  0.33931922    -0.11800
C977        C  0.55228133  0.57648036  0.34270819     0.02870
C978        C  0.54906594  0.55393989  0.29914616    -0.11220
H979        H  0.54795718  0.65657922  0.21889147     0.08470
H980        H  0.55952822  0.64485484  0.37262402     0.06000
H981        H  0.54181660  0.51453001  0.30121705     0.05840
C982        C  0.94919434  0.89021892  0.37651088     0.02880
C983        C  0.94943132  0.91817684  0.32993666    -0.13270
C984        C  0.94975027  0.89421991  0.28685432     0.00380
C985        C  0.94844530  0.84358719  0.29149196    -0.11800
C986        C  0.95495768  0.81789692  0.33578551     0.02870
C987        C  0.95254656  0.84005214  0.37865303    -0.11220
H988        H  0.95259556  0.95773744  0.32704880     0.08470
H989        H  0.95044726  0.82476460  0.25889762     0.06000
H990        H  0.95938724  0.81949117  0.41259881     0.05840
O991        O  0.57900387  0.87823457  0.99088594    -0.80380
O992        O  0.94094367  0.95891294  0.22482602    -0.81930
O993        O  0.60675732  0.91116994  0.14334615    -0.78950
O994        O  0.97168771  0.82628516  0.12283280    -0.77340
O995        O  0.91131921  0.84687251  0.07599385    -0.79130
O996        O  0.64100411  0.99067836  0.12346090    -0.80060
O997        O  0.98722885  0.89817210  0.20505662    -0.81390
O998        O  0.55861920  0.84317450  0.07045726    -0.81680
Eu999      Eu  0.52267516  0.90422003  0.11724079     2.39330
O1000       O  0.94398959  0.93142609  0.12015582    -0.89190
O1001       O  0.57774235  0.95981322  0.06249593    -0.92790
C1002       C  0.57550021  0.84182874  0.02532096     1.01900
C1003       C  0.96007249  0.91929950  0.23595581     1.01720
C1004       C  0.64274964  0.94567325  0.14028899     1.01660
C1005       C  0.93243510  0.81560190  0.10309353     0.99520
H1006       H  0.53794749  0.97878013  0.17464681     0.29270
O1007       O  0.52592855  0.98220727  0.14298018    -1.01570
H1008       H  0.99170193  0.87685314  0.02643657     0.29300
O1009       O  0.99519185  0.90828085  0.03850667    -1.04120
O1010       O  0.92332399  0.59484441  0.13837943    -0.81340
O1011       O  0.55976321  0.51206933  0.40510552    -0.80880
O1012       O  0.57394933  0.56636930  0.17161993    -0.79320
O1013       O  0.83923013  0.92978155  0.09246467    -0.82660
O1014       O  0.92463499  0.90961741  0.45695188    -0.80510
O1015       O  0.65890127  0.54454087  0.03787559    -0.79160
O1016       O  0.52548003  0.64536790  0.00438824    -0.80680
O1017       O  0.89236301  0.56108157  0.48262902    -0.82610
O1018       O  0.58481902  0.62665477  0.05335833    -0.79340
O1019       O  0.85701424  0.98211331  0.00382198    -0.82020
O1020       O  0.99458243  0.54658131  0.20674318    -0.77750
O1021       O  0.64029073  0.99555784  0.47904690    -0.77790
O1022       O  0.00458617  0.92806499  0.42322125    -0.77430
O1023       O  0.85925262  0.97638575  0.15274228    -0.80930
O1024       O  0.94235494  0.62838476  0.05816489    -0.80350
O1025       O  0.01130403  0.57174791  0.42301302    -0.78680
Eu1026     Eu  0.94744754  0.51017598  0.14631475     2.39770
Eu1027     Eu  0.55239110  0.96189790  0.48407127     2.39570
Eu1028     Eu  0.58037613  0.53875832  0.08835927     2.38400
Eu1029     Eu  0.91730154  0.93490089  0.04118826     2.39880
Eu1030     Eu  0.97567393  0.56698793  0.01068155     2.39790
O1031       O  0.97358431  0.98876803  0.98600893    -0.93100
O1032       O  0.00211111  0.56417412  0.08975396    -0.91990
C1033       C  0.92644315  0.63062902  0.10332965     1.02070
C1034       C  0.53978285  0.55091107  0.39306039     1.00790
C1035       C  0.53963467  0.56340513  0.20794609     1.00180
C1036       C  0.82825919  0.94932933  0.13175446     1.02200
C1037       C  0.95948625  0.91218815  0.42119152     1.01110
C1038       C  0.67056059  0.52390319  0.99945628     0.99960
C1039       C  0.56394187  0.65697528  0.02495878     1.00020
C1040       C  0.85590433  0.52701740  0.48613355     1.02630
H1041       H  0.57765531  0.56361684  0.48619371     0.30000
O1042       O  0.55487437  0.54112576  0.00894784    -1.05260
H1043       H  0.88966394  0.52582111  0.07122207     0.32050
O1044       O  0.92112850  0.51346452  0.06810379    -1.07820
C1045       C  0.55594894  0.74155427  0.30780683    -0.20550
C1046       C  0.52858763  0.69792170  0.30192675    -0.07120
C1047       C  0.97682708  0.69217319  0.31203602     0.13750
C1048       C  0.95341607  0.73125610  0.32679320    -0.20610
C1049       C  0.98068724  0.77504856  0.33209904    -0.07130
C1050       C  0.53243523  0.78073999  0.32239037     0.13740
C1051       C  0.56267549  0.82848206  0.32605246    -0.23960
H1052       H  0.59560125  0.74461500  0.30149607     0.15020
H1053       H  0.91375413  0.72823764  0.33298805     0.15050
C1054       C  0.94624984  0.64463953  0.30818502    -0.23910
H1055       H  0.60245915  0.82621494  0.31701894     0.05260
H1056       H  0.55675956  0.83828402  0.36401080     0.08490
H1057       H  0.55211058  0.85803270  0.30002938     0.08490
H1058       H  0.95667331  0.61482412  0.33395063     0.08470
H1059       H  0.95174119  0.63508774  0.27011299     0.08470
H1060       H  0.90653583  0.64706022  0.31750147     0.05250
C1061       C  0.77502216  0.97083676  0.35045248    -0.20550
C1062       C  0.76315251  0.51914179  0.34882587    -0.07120
C1063       C  0.73479223  0.53742714  0.31273356     0.13750
C1064       C  0.71888480  0.50678787  0.27930400    -0.20610
C1065       C  0.73122033  0.95865639  0.28069136    -0.07130
C1066       C  0.75891064  0.94016992  0.31723599     0.13740
C1067       C  0.77219166  0.88844546  0.32182373    -0.23960
H1068       H  0.79473306  0.95592194  0.37964008     0.15020
H1069       H  0.69919320  0.52162505  0.25006739     0.15050
C1070       C  0.72090181  0.58892999  0.30858982    -0.23910
H1071       H  0.75846149  0.86985606  0.35912886     0.05260
H1072       H  0.81265653  0.88894240  0.31616699     0.08490
H1073       H  0.75594754  0.86652856  0.29495003     0.08490
H1074       H  0.73704138  0.61086241  0.33550412     0.08470
H1075       H  0.68039713  0.58794884  0.31453052     0.08470
H1076       H  0.73424163  0.60782068  0.27131551     0.05250
C1077       C  0.75422181  0.74209224  0.00706819    -0.20550
C1078       C  0.71072328  0.74844303  0.03474740    -0.07120
C1079       C  0.70548777  0.73937688  0.08669945     0.13750
C1080       C  0.74498468  0.72514275  0.10996090    -0.20610
C1081       C  0.78863331  0.71936312  0.08236188    -0.07130
C1082       C  0.79382748  0.72803233  0.03044277     0.13740
C1083       C  0.84145527  0.72382988  0.49986096    -0.23960
H1084       H  0.75684807  0.74763995  0.46731451     0.15020
H1085       H  0.74240173  0.71970934  0.14972142     0.15050
C1086       C  0.65808676  0.74375022  0.11766436    -0.23910
H1087       H  0.83878511  0.73219757  0.45997198     0.05260
H1088       H  0.85151014  0.68602423  0.50645185     0.08490
H1089       H  0.87106427  0.74994651  0.00959731     0.08490
H1090       H  0.62819610  0.71789692  0.10809296     0.08470
H1091       H  0.64828247  0.78167752  0.11155205     0.08470
H1092       H  0.66094162  0.73507216  0.15747941     0.05250
C1093       C  0.59549630  0.79650587  0.01353054     0.02880
C1094       C  0.64632926  0.79755229  0.51009397    -0.13270
C1095       C  0.66761332  0.75411468  0.50979816     0.00380
C1096       C  0.63987015  0.71068493  0.50538783    -0.11800
C1097       C  0.58910343  0.70726806  0.01300034     0.02870
C1098       C  0.56616196  0.75067418  0.01654774    -0.11220
H1099       H  0.66865692  0.83085083  0.51495070     0.08470
H1100       H  0.65788430  0.67753449  0.50517833     0.06000
H1101       H  0.52671170  0.74859773  0.02425815     0.05840
C1102       C  0.90446646  0.67540267  0.61340274     0.02880
C1103       C  0.85422652  0.67330578  0.61037023    -0.13270
C1104       C  0.83175628  0.71600116  0.60768180     0.00380
C1105       C  0.85712135  0.76019779  0.61367945    -0.11800
C1106       C  0.90777442  0.76478364  0.61267242     0.02870
C1107       C  0.93215042  0.72180449  0.61304365    -0.11220
H1108       H  0.83379575  0.63946832  0.60391169     0.08470
H1109       H  0.83796478  0.79265265  0.61148547     0.06000
H1110       H  0.97176182  0.72462946  0.61005505     0.05840
C1111       C  0.68782436  0.93485304  0.66189117     0.02880
C1112       C  0.68569123  0.93350581  0.71288273    -0.13270
C1113       C  0.72873660  0.93619047  0.73534360     0.00380
C1114       C  0.77352942  0.93477476  0.70799191    -0.11800
C1115       C  0.77764320  0.93860349  0.65709884     0.02870
C1116       C  0.73434063  0.93836054  0.63341120    -0.11220
H1117       H  0.65124879  0.93681164  0.73435938     0.08470
H1118       H  0.80655960  0.93745016  0.72618576     0.06000
H1119       H  0.73687238  0.94371931  0.59371043     0.05840
C1120       C  0.81036845  0.53883376  0.96605284     0.02880
C1121       C  0.81126787  0.54333751  0.91500232    -0.13270
C1122       C  0.76746169  0.54206030  0.89371712     0.00380
C1123       C  0.72344055  0.54307700  0.92255616    -0.11800
C1124       C  0.72063929  0.53601289  0.97341662     0.02870
C1125       C  0.76449658  0.53418502  0.49581216    -0.11220
H1126       H  0.84515900  0.54063430  0.89231165     0.08470
H1127       H  0.68977811  0.54168318  0.90533679     0.06000
H1128       H  0.76285521  0.52647112  0.53533042     0.05840
C1129       C  0.55143206  0.58351676  0.75319779     0.02880
C1130       C  0.55357899  0.63422600  0.75223530    -0.13270
C1131       C  0.55395682  0.65514282  0.79587188     0.00380
C1132       C  0.55933424  0.62719206  0.83931922    -0.11800
C1133       C  0.55228133  0.57648036  0.84270819     0.02870
C1134       C  0.54906595  0.55393989  0.79914616    -0.11220
H1135       H  0.54795719  0.65657922  0.71889147     0.08470
H1136       H  0.55952823  0.64485484  0.87262402     0.06000
H1137       H  0.54181660  0.51453001  0.80121704     0.05840
C1138       C  0.94919434  0.89021892  0.87651088     0.02880
C1139       C  0.94943132  0.91817684  0.82993667    -0.13270
C1140       C  0.94975028  0.89421991  0.78685432     0.00380
C1141       C  0.94844532  0.84358718  0.79149196    -0.11800
C1142       C  0.95495770  0.81789692  0.83578551     0.02870
C1143       C  0.95254658  0.84005213  0.87865303    -0.11220
H1144       H  0.95259556  0.95773744  0.82704880     0.08470
H1145       H  0.95044728  0.82476459  0.75889762     0.06000
H1146       H  0.95938726  0.81949117  0.91259881     0.05840
O1147       O  0.57900387  0.87823457  0.49088594    -0.80380
O1148       O  0.94094368  0.95891294  0.72482602    -0.81930
O1149       O  0.60675731  0.91116994  0.64334614    -0.78950
O1150       O  0.97168771  0.82628516  0.62283280    -0.77340
O1151       O  0.91131921  0.84687252  0.57599384    -0.79130
O1152       O  0.64100411  0.99067836  0.62346090    -0.80060
O1153       O  0.98722885  0.89817210  0.70505662    -0.81390
O1154       O  0.55861919  0.84317450  0.57045726    -0.81680
Eu1155     Eu  0.52267516  0.90422003  0.61724078     2.39330
O1156       O  0.94398959  0.93142609  0.62015582    -0.89190
O1157       O  0.57774235  0.95981322  0.56249593    -0.92790
C1158       C  0.57550021  0.84182874  0.52532095     1.01900
C1159       C  0.96007249  0.91929949  0.73595581     1.01720
C1160       C  0.64274963  0.94567325  0.64028899     1.01660
C1161       C  0.93243509  0.81560190  0.60309353     0.99520
H1162       H  0.53794748  0.97878013  0.67464681     0.29270
O1163       O  0.52592855  0.98220727  0.64298018    -1.01570
H1164       H  0.99170193  0.87685314  0.52643656     0.29300
O1165       O  0.99519185  0.90828085  0.53850667    -1.04120
O1166       O  0.92332399  0.59484441  0.63837943    -0.81340
O1167       O  0.55976321  0.51206933  0.90510552    -0.80880
O1168       O  0.57394933  0.56636930  0.67161993    -0.79320
O1169       O  0.83923013  0.92978156  0.59246467    -0.82660
O1170       O  0.92463500  0.90961740  0.95695188    -0.80510
O1171       O  0.65890127  0.54454087  0.53787559    -0.79160
O1172       O  0.52548003  0.64536791  0.50438824    -0.80680
O1173       O  0.89236301  0.56108157  0.98262902    -0.82610
O1174       O  0.58481901  0.62665477  0.55335833    -0.79340
O1175       O  0.85701424  0.98211332  0.50382198    -0.82020
O1176       O  0.99458244  0.54658131  0.70674319    -0.77750
O1177       O  0.64029074  0.99555783  0.97904690    -0.77790
O1178       O  0.00458617  0.92806498  0.92322125    -0.77430
O1179       O  0.85925262  0.97638575  0.65274229    -0.80930
O1180       O  0.94235494  0.62838476  0.55816490    -0.80350
O1181       O  0.01130404  0.57174790  0.92301302    -0.78680
Eu1182     Eu  0.94744754  0.51017598  0.64631476     2.39770
Eu1183     Eu  0.55239111  0.96189790  0.98407127     2.39570
Eu1184     Eu  0.58037613  0.53875832  0.58835927     2.38400
Eu1185     Eu  0.91730154  0.93490090  0.54118826     2.39880
Eu1186     Eu  0.97567393  0.56698793  0.51068155     2.39790
O1187       O  0.97358431  0.98876804  0.48600893    -0.93100
O1188       O  0.00211111  0.56417412  0.58975396    -0.91990
C1189       C  0.92644314  0.63062902  0.60332965     1.02070
C1190       C  0.53978285  0.55091107  0.89306039     1.00790
C1191       C  0.53963467  0.56340513  0.70794609     1.00180
C1192       C  0.82825919  0.94932933  0.63175446     1.02200
C1193       C  0.95948625  0.91218815  0.92119152     1.01110
C1194       C  0.67056059  0.52390319  0.49945627     0.99960
C1195       C  0.56394186  0.65697528  0.52495877     1.00020
C1196       C  0.85590434  0.52701740  0.98613354     1.02630
H1197       H  0.57765532  0.56361684  0.98619371     0.30000
O1198       O  0.55487436  0.54112577  0.50894784    -1.05260
H1199       H  0.88966394  0.52582111  0.57122207     0.32050
O1200       O  0.92112850  0.51346452  0.56810379    -1.07820
C1201       C  0.55594895  0.74155427  0.80780683    -0.20550
C1202       C  0.52858764  0.69792170  0.80192676    -0.07120
C1203       C  0.97682710  0.69217319  0.81203602     0.13750
C1204       C  0.95341609  0.73125610  0.82679320    -0.20610
C1205       C  0.98068726  0.77504855  0.83209904    -0.07130
C1206       C  0.53243524  0.78073999  0.82239037     0.13740
C1207       C  0.56267550  0.82848205  0.82605247    -0.23960
H1208       H  0.59560126  0.74461500  0.80149608     0.15020
H1209       H  0.91375415  0.72823764  0.83298804     0.15050
C1210       C  0.94624986  0.64463953  0.80818501    -0.23910
H1211       H  0.60245915  0.82621494  0.81701895     0.05260
H1212       H  0.55675956  0.83828402  0.86401080     0.08490
H1213       H  0.55211059  0.85803270  0.80002938     0.08490
H1214       H  0.95667333  0.61482412  0.83395062     0.08470
H1215       H  0.95174122  0.63508775  0.77011298     0.08470
H1216       H  0.90653585  0.64706022  0.81750146     0.05250
C1217       C  0.77502215  0.97083674  0.85045248    -0.20550
C1218       C  0.76315251  0.51914181  0.84882588    -0.07120
C1219       C  0.73479222  0.53742716  0.81273357     0.13750
C1220       C  0.71888480  0.50678789  0.77930400    -0.20610
C1221       C  0.73122032  0.95865638  0.78069137    -0.07130
C1222       C  0.75891063  0.94016990  0.81723599     0.13740
C1223       C  0.77219165  0.88844544  0.82182373    -0.23960
H1224       H  0.79473305  0.95592192  0.87964009     0.15020
H1225       H  0.69919320  0.52162507  0.75006740     0.15050
C1226       C  0.72090181  0.58893001  0.80858983    -0.23910
H1227       H  0.75846147  0.86985604  0.85912887     0.05260
H1228       H  0.81265652  0.88894238  0.81616699     0.08490
H1229       H  0.75594752  0.86652855  0.79495004     0.08490
H1230       H  0.73704138  0.61086243  0.83550412     0.08470
H1231       H  0.68039713  0.58794886  0.81453052     0.08470
H1232       H  0.73424163  0.60782070  0.77131551     0.05250
C1233       C  0.75422181  0.74209224  0.50706818    -0.20550
C1234       C  0.71072328  0.74844303  0.53474740    -0.07120
C1235       C  0.70548777  0.73937688  0.58669945     0.13750
C1236       C  0.74498468  0.72514275  0.60996090    -0.20610
C1237       C  0.78863331  0.71936312  0.58236188    -0.07130
C1238       C  0.79382748  0.72803233  0.53044277     0.13740
C1239       C  0.84145527  0.72382989  0.99986096    -0.23960
H1240       H  0.75684807  0.74763995  0.96731451     0.15020
H1241       H  0.74240172  0.71970935  0.64972142     0.15050
C1242       C  0.65808676  0.74375022  0.61766436    -0.23910
H1243       H  0.83878512  0.73219758  0.95997198     0.05260
H1244       H  0.85151015  0.68602424  0.00645185     0.08490
H1245       H  0.87106427  0.74994650  0.50959730     0.08490
H1246       H  0.62819610  0.71789692  0.60809296     0.08470
H1247       H  0.64828247  0.78167752  0.61155204     0.08470
H1248       H  0.66094162  0.73507217  0.65747941     0.05250
loop_ 
_geom_bond_atom_site_label_1 
_geom_bond_atom_site_label_2 
_geom_bond_distance 
_geom_bond_site_symmetry_2 
_ccdc_geom_bond_type 
C1            C6   1.425       .  A
C1          C158   1.395       .  A
C1          C222   1.474       .  S
C2            C3   1.390       .  A
C2          C157   1.395       .  A
C2            H7   1.085       .  S
C3            C4   1.383       .  A
C3          C142   1.448       .  S
C4          C161   1.388       .  A
C4            H8   1.087       .  S
C5            C6   1.421       .  A
C5          C160   1.388       .  A
C5          C259   1.480       .  S
C6            H9   1.083       .  S
C10          C11   1.394       .  A
C10          C15   1.426       .  A
C10          C97   1.474       .  S
C11          C12   1.387       .  A
C11          H16   1.086       .  S
C12          C13   1.382       .  A
C12         C145   1.447       .  S
C13          C14   1.389       .  A
C13          H17   1.086       .  S
C14          C15   1.424       .  A
C14          C69   1.484       .  S
C15          H18   1.083       .  S
C19          C20   1.398       .  A
C19          C24   1.424       .  A
C19          C68   1.477       .  S
C20          C21   1.395       .  A
C20          H25   1.085       .  S
C21          C22   1.388       .  A
C21         C129   1.461       .  S
C22          C23   1.388       .  A
C22          H26   1.085       .  S
C23          C24   1.420       .  A
C23         C100   1.484       .  S
C24          H27   1.083       .  S
C28          C29   1.397       .  A
C28         C189   1.424       .  A
C28         C104   1.477       .  S
C29          C30   1.397       .  A
C29          H34   1.085       .  S
C30          C31   1.387       .  A
C30         C126   1.461       .  S
C31          C32   1.388       .  A
C31          H35   1.086       .  S
C32         C189   1.418       .  A
C32         C258   1.481       .  S
C33         C184   1.424       .  A
C33         C188   1.418       .  A
C33          H36   1.083   1_556  S
C37          C38   1.396       .  A
C37          C42   1.424       .  A
C37          C99   1.474       .  S
C38          C39   1.392       .  A
C38          H43   1.085       .  S
C39          C40   1.384       .  A
C39         C110   1.451       .  S
C40          C41   1.389       .  A
C40          H44   1.087       .  S
C41          C42   1.419       .  A
C41          C98   1.479       .  S
C42          H45   1.083       .  S
C46          C47   1.425       .  A
C46          C51   1.396       .  A
C46         C101   1.473       .  S
C47          C48   1.422       .  A
C47          H52   1.083       .  S
C48          C49   1.390       .  A
C48          C67   1.483       .  S
C49          C50   1.383       .  A
C49          H53   1.086       .  S
C50          C51   1.388       .  A
C50         C113   1.450       .  S
C51          H54   1.085       .  S
O55          C66   1.296   1_556  A
O55        Eu247   2.492       .  S
O56          C67   1.285       .  A
O56        Eu402   2.436       .  S
O57          C68   1.297       .  A
O57         Eu63   2.496       .  S
O58          C69   1.285       .  A
O58        Eu687   2.436       .  S
O59          C69   1.303       .  A
O59         Eu93   2.503       .  S
O60          C68   1.288       .  A
O60        Eu404   2.451       .  S
O61          C67   1.302       .  A
O61        Eu687   2.499       .  S
O62          C66   1.290       .  A
O62         Eu63   2.460       .  S
Eu63        O682   2.436   1_455  S
Eu63        O685   2.499   1_455  S
Eu63         O65   2.349       .  S
Eu63         O71   2.340       .  S
Eu63        O697   2.368   1_455  S
Eu63        O688   2.366   1_455  S
O64         Eu93   2.365       .  S
O64        Eu687   2.366       .  S
O64        Eu402   2.365       .  S
O65        Eu247   2.338   1_554  S
O65        Eu404   2.367       .  S
C66         C157   1.474       .  S
H70          O71   0.964       .  S
O71        Eu404   2.352       .  S
O71       Eu1026   2.370   1_455  S
H72          O73   0.964       .  S
O73         Eu93   2.339       .  S
O73        Eu687   2.368       .  S
O73        Eu871   2.348   1_554  S
O74          C97   1.296       .  A
O74         Eu90   2.492       .  S
O75          C98   1.284       .  A
O75        Eu403   2.431   1_545  S
O76          C99   1.296       .  A
O76         Eu92   2.493       .  S
O77         C100   1.285       .  A
O77         Eu93   2.437       .  S
O78         C101   1.296       .  A
O78        Eu249   2.493       .  S
O79         C102   1.285   1_554  A
O79         Eu92   2.435       .  S
O80         C103   1.284       .  A
O80        Eu718   2.429   1_455  S
O81         C104   1.297       .  A
O81        Eu250   2.497       .  S
O82         C103   1.303       .  A
O82         Eu92   2.504       .  S
O83         C572   1.289   1_554  A
O83         Eu93   2.457       .  S
O84         C723   1.289       .  A
O84         Eu90   2.457       .  S
O85         C570   1.301       .  A
O85         Eu91   2.496       .  S
O86         C101   1.288       .  A
O86        Eu715   2.447       .  S
O87         C100   1.302       .  A
O87        Eu402   2.502       .  S
O88          C97   1.288       .  A
O88         Eu94   2.449       .  S
O89         C722   1.302       .  A
O89        Eu250   2.500       .  S
Eu90        O368   2.436   1_545  S
Eu90        O399   2.502   1_545  S
Eu90        O108   2.341       .  S
Eu90         O96   2.347       .  S
Eu90        O376   2.365   1_545  S
Eu90       O1007   2.370   1_545  S
Eu91        O211   2.492       .  S
Eu91        O387   2.431       .  S
Eu91        O710   2.447       .  S
Eu91        O221   2.338       .  S
Eu91        O853   2.348   1_455  S
Eu91        O875   2.367   1_455  S
Eu91        O574   2.364       .  S
Eu92        O372   2.451   1_545  S
Eu92        O106   2.365       .  S
Eu92        O377   2.367   1_545  S
Eu92        O383   2.352   1_545  S
Eu92        O720   2.337       .  S
Eu93        O234   2.493   1_554  S
Eu93         O95   2.348   1_554  S
Eu93        O420   2.369       .  S
Eu94        O704   2.429       .  S
Eu94        O237   2.497   1_554  S
Eu94        O245   2.500   1_554  S
Eu94        O108   2.351       .  S
Eu94         O96   2.366       .  S
Eu94        O407   2.336   1_544  S
Eu94        O730   2.366       .  S
O95        Eu871   2.367       .  S
O95        Eu406   2.336   1_556  S
O96        Eu716   2.337       .  S
C98         O713   1.302       .  A
C99         O708   1.289   1_455  A
C102        C188   1.481       .  S
C102        O553   1.301   1_545  A
C103        C161   1.480       .  S
C104        O551   1.289   1_545  A
H105        O262   0.966       .  S
O106       Eu559   2.364   1_544  S
O106       Eu718   2.366   1_455  S
O106        H261   0.966   1_554  S
H107        O108   0.964       .  S
O108       Eu405   2.369   1_545  S
C109        C110   1.393       .  A
C109        C114   1.393       .  A
C109        H116   1.084       .  S
C110        C735   1.418   1_455  A
C111        C112   1.391       .  A
C111        C734   1.418       .  A
C111        C118   1.511       .  S
C112        C113   1.392       .  A
C112        H117   1.085       .  S
C113        C738   1.417       .  A
C114        C737   1.417   1_455  A
C114        C115   1.510       .  S
C115        H119   1.111       .  S
C115        H120   1.110       .  S
C115        H121   1.110       .  S
C118        H122   1.109       .  S
C118        H123   1.110       .  S
C118        H124   1.111       .  S
C125        C130   1.391       .  A
C125        C438   1.405       .  A
C125        H132   1.085       .  S
C126        C127   1.411       .  A
C126        C437   1.405   1_545  A
C127        C128   1.393       .  A
C127        C134   1.508       .  S
C128        C441   1.405   1_545  A
C128        H133   1.085       .  S
C129        C130   1.410       .  A
C129        C440   1.405       .  A
C130        C131   1.508       .  S
C131        H135   1.111       .  S
C131        H136   1.111       .  S
C131        H137   1.109       .  S
C134        H138   1.109       .  S
C134        H139   1.111       .  S
C134        H140   1.110       .  S
C141        C142   1.393       .  A
C141        C146   1.392       .  A
C141        H304   1.084   1_554  S
C142        C143   1.418       .  A
C143        C144   1.390       .  A
C143        C150   1.511       .  S
C144        C145   1.391       .  A
C144        H149   1.085       .  S
C145        C146   1.416       .  A
C146        C303   1.510   1_554  S
C147        C302   1.510       .  S
C147        H151   1.111       .  S
C147        H152   1.110       .  S
C147        H309   1.110       .  S
H148        C297   1.084       .  S
C150        H154   1.109       .  S
C150        H155   1.110       .  S
C150        H156   1.111       .  S
H153        C303   1.110   1_554  S
C157        C162   1.425       .  A
C158        C159   1.390       .  A
C158        H163   1.085       .  S
C159        C160   1.383       .  A
C159        C298   1.448       .  S
C160        H164   1.087       .  S
C161        C162   1.421       .  A
C162        H165   1.083       .  S
C166        C167   1.394       .  A
C166        C171   1.426       .  A
C166        C253   1.474       .  S
C167        C168   1.387       .  A
C167        H172   1.086       .  S
C168        C169   1.382       .  A
C168        C301   1.447       .  S
C169        C170   1.389       .  A
C169        H173   1.086       .  S
C170        C171   1.424       .  A
C170        C225   1.484       .  S
C171        H174   1.083       .  S
C175        C176   1.398       .  A
C175        C180   1.424       .  A
C175        C224   1.477       .  S
C176        C177   1.395       .  A
C176        H181   1.085       .  S
C177        C178   1.388       .  A
C177        C285   1.461       .  S
C178        C179   1.388       .  A
C178        H182   1.085       .  S
C179        C180   1.420       .  A
C179        C256   1.484       .  S
C180        H183   1.083       .  S
C184        C185   1.397       .  A
C184        C260   1.477       .  S
C185        C186   1.397       .  A
C185        H190   1.085       .  S
C186        C187   1.387       .  A
C186        C282   1.461       .  S
C187        C188   1.388       .  A
C187        H191   1.086       .  S
C189        H192   1.083       .  S
C193        C194   1.396       .  A
C193        C198   1.424       .  A
C193        C255   1.474       .  S
C194        C195   1.392       .  A
C194        H199   1.085       .  S
C195        C196   1.384       .  A
C195        C266   1.451       .  S
C196        C197   1.389       .  A
C196        H200   1.087       .  S
C197        C198   1.419       .  A
C197        C254   1.479       .  S
C198        H201   1.083       .  S
C202        C203   1.425       .  A
C202        C207   1.396       .  A
C202        C257   1.473       .  S
C203        C204   1.422       .  A
C203        H208   1.083       .  S
C204        C205   1.390       .  A
C204        C223   1.483       .  S
C205        C206   1.383       .  A
C205        H209   1.086       .  S
C206        C207   1.388       .  A
C206        C269   1.450       .  S
C207        H210   1.085       .  S
O211        C222   1.296       .  A
O212        C223   1.285       .  A
O212       Eu558   2.436       .  S
O213        C224   1.297       .  A
O213       Eu219   2.496       .  S
O214        C225   1.285       .  A
O214       Eu843   2.436       .  S
O215        C225   1.303       .  A
O215       Eu249   2.503       .  S
O216        C224   1.288       .  A
O216       Eu560   2.451       .  S
O217        C223   1.302       .  A
O217       Eu843   2.499       .  S
O218        C222   1.290       .  A
O218       Eu219   2.460       .  S
Eu219       O838   2.436   1_455  S
Eu219       O841   2.499   1_455  S
Eu219       O853   2.368   1_455  S
Eu219       O221   2.349       .  S
Eu219       O844   2.366   1_455  S
Eu219       O227   2.340       .  S
O220       Eu843   2.366       .  S
O220       Eu249   2.365       .  S
O220       Eu558   2.365       .  S
O221       Eu560   2.367       .  S
H226        O227   0.964       .  S
O227       Eu560   2.352       .  S
O227      Eu1182   2.370   1_455  S
H228        O229   0.964       .  S
O229       Eu843   2.368       .  S
O229       Eu715   2.348       .  S
O229       Eu249   2.339       .  S
O230        C253   1.296       .  A
O230       Eu246   2.492       .  S
O231        C254   1.284       .  A
O231       Eu559   2.431   1_545  S
O232        C255   1.296       .  A
O232       Eu248   2.493       .  S
O233        C256   1.285       .  A
O233       Eu249   2.437       .  S
O234        C257   1.296       .  A
O235        C258   1.285       .  A
O235       Eu248   2.435       .  S
O236        C259   1.284       .  A
O236       Eu874   2.429   1_455  S
O237        C260   1.297       .  A
O238        C259   1.303       .  A
O238       Eu248   2.504       .  S
O239        C416   1.289       .  A
O239       Eu249   2.457       .  S
O240        C879   1.289       .  A
O240       Eu246   2.457       .  S
O241        C414   1.301       .  A
O241       Eu247   2.496       .  S
O242        C257   1.288       .  A
O242       Eu871   2.447       .  S
O243        C256   1.302       .  A
O243       Eu558   2.502       .  S
O244        C253   1.288       .  A
O244       Eu250   2.449       .  S
O245        C878   1.302       .  A
Eu246       O524   2.436   1_545  S
Eu246       O555   2.502   1_545  S
Eu246       O532   2.365   1_545  S
Eu246      O1163   2.370   1_545  S
Eu246       O264   2.341       .  S
Eu246       O252   2.347       .  S
Eu247       O543   2.431       .  S
Eu247       O866   2.447       .  S
Eu247       O697   2.348   1_456  S
Eu247       O719   2.367   1_455  S
Eu247       O418   2.364   1_556  S
Eu248       O528   2.451   1_545  S
Eu248       O533   2.367   1_545  S
Eu248       O539   2.352   1_545  S
Eu248       O262   2.365       .  S
Eu248       O876   2.337       .  S
Eu249       O251   2.348       .  S
Eu249       O576   2.369       .  S
Eu250       O860   2.429       .  S
Eu250       O563   2.336   1_545  S
Eu250       O886   2.366       .  S
Eu250       O264   2.351       .  S
Eu250       O252   2.366       .  S
O251       Eu715   2.367       .  S
O251       Eu562   2.336       .  S
O252       Eu872   2.337       .  S
C254        O869   1.302       .  A
C255        O864   1.289   1_455  A
C258        O397   1.301   1_545  A
C260        O395   1.289   1_546  A
O262       Eu403   2.364   1_545  S
O262       Eu874   2.366   1_455  S
H263        O264   0.964       .  S
O264       Eu561   2.369   1_545  S
C265        C266   1.393       .  A
C265        C270   1.393       .  A
C265        H272   1.084       .  S
C266        C891   1.418   1_455  A
C267        C890   1.418       .  A
C267        C268   1.391       .  A
C267        C274   1.511       .  S
C268        C269   1.392       .  A
C268        H273   1.085       .  S
C269        C894   1.417       .  A
C270        C893   1.417   1_455  A
C270        C271   1.510       .  S
C271        H275   1.111       .  S
C271        H276   1.110       .  S
C271        H277   1.110       .  S
C274        H278   1.109       .  S
C274        H279   1.110       .  S
C274        H280   1.111       .  S
C281        C594   1.405       .  A
C281        C286   1.391       .  A
C281        H288   1.085       .  S
C282        C593   1.405   1_545  A
C282        C283   1.411       .  A
C283        C284   1.393       .  A
C283        C290   1.508       .  S
C284        C597   1.405   1_545  A
C284        H289   1.085       .  S
C285        C596   1.405       .  A
C285        C286   1.410       .  A
C286        C287   1.508       .  S
C287        H291   1.111       .  S
C287        H292   1.111       .  S
C287        H293   1.109       .  S
C290        H294   1.109       .  S
C290        H295   1.111       .  S
C290        H296   1.110       .  S
C297        C298   1.393       .  A
C297        C302   1.392       .  A
C298        C299   1.418       .  A
C299        C300   1.390       .  A
C299        C306   1.511       .  S
C300        C301   1.391       .  A
C300        H305   1.085       .  S
C301        C302   1.416       .  A
C303        H307   1.111       .  S
C303        H308   1.110   1_556  S
C306        H310   1.109       .  S
C306        H311   1.110       .  S
C306        H312   1.111       .  S
C313        C470   1.395       .  A
C313        C318   1.425       .  A
C313        C534   1.474       .  S
C314        C469   1.395       .  A
C314        C315   1.390       .  A
C314        H319   1.085       .  S
C315        C316   1.383       .  A
C315        C454   1.448       .  S
C316        C473   1.388       .  A
C316        H320   1.087       .  S
C317        C472   1.388       .  A
C317        C318   1.421       .  A
C317        C571   1.480       .  S
C318        H321   1.083       .  S
C322        C323   1.394       .  A
C322        C327   1.426       .  A
C322        C409   1.474       .  S
C323        C324   1.387       .  A
C323        H328   1.086       .  S
C324        C325   1.382       .  A
C324        C457   1.447       .  S
C325        C326   1.389       .  A
C325        H329   1.086       .  S
C326        C327   1.424       .  A
C326        C381   1.484       .  S
C327        H330   1.083       .  S
C331        C332   1.398       .  A
C331        C336   1.424       .  A
C331        C380   1.477       .  S
C332        C333   1.395       .  A
C332        H337   1.085       .  S
C333        C334   1.388       .  A
C333        C441   1.461       .  S
C334        C335   1.388       .  A
C334        H338   1.085       .  S
C335        C336   1.420       .  A
C335        C412   1.484       .  S
C336        H339   1.083       .  S
C340        C341   1.397       .  A
C340        C501   1.424       .  A
C340        C416   1.477       .  S
C341        C342   1.397       .  A
C341        H346   1.085       .  S
C342        C343   1.387       .  A
C342        C438   1.461       .  S
C343        C344   1.388       .  A
C343        H347   1.086       .  S
C344        C501   1.418       .  A
C344        C570   1.481       .  S
C345        C496   1.424       .  A
C345        C500   1.418       .  A
C345        H348   1.083   1_556  S
C349        C350   1.396       .  A
C349        C354   1.424       .  A
C349        C411   1.474       .  S
C350        C351   1.392       .  A
C350        H355   1.085       .  S
C351        C352   1.384       .  A
C351        C422   1.451       .  S
C352        C353   1.389       .  A
C352        H356   1.087       .  S
C353        C354   1.419       .  A
C353        C410   1.479       .  S
C354        H357   1.083       .  S
C358        C359   1.425       .  A
C358        C363   1.396       .  A
C358        C413   1.473       .  S
C359        C360   1.422       .  A
C359        H364   1.083       .  S
C360        C361   1.390       .  A
C360        C379   1.483       .  S
C361        C362   1.383       .  A
C361        H365   1.086       .  S
C362        C363   1.388       .  A
C362        C425   1.450       .  S
C363        H366   1.085       .  S
O367        C378   1.296   1_556  A
O367       Eu559   2.492       .  S
O368        C379   1.285       .  A
O369        C380   1.297       .  A
O369       Eu375   2.496       .  S
O370        C381   1.285       .  A
O370       Eu999   2.436       .  S
O371        C381   1.303       .  A
O371       Eu405   2.503       .  S
O372        C380   1.288       .  A
O373        C379   1.302       .  A
O373       Eu999   2.499       .  S
O374        C378   1.290       .  A
O374       Eu375   2.460       .  S
Eu375       O994   2.436   1_455  S
Eu375       O997   2.499   1_455  S
Eu375      O1009   2.368   1_455  S
Eu375       O377   2.349       .  S
Eu375      O1000   2.366   1_455  S
Eu375       O383   2.340       .  S
O376       Eu999   2.366       .  S
O376       Eu405   2.365       .  S
O377       Eu559   2.338   1_554  S
C378        C469   1.474       .  S
H382        O383   0.964       .  S
O383       Eu714   2.370   1_465  S
H384        O385   0.964       .  S
O385       Eu999   2.368       .  S
O385      Eu1183   2.348   1_554  S
O385       Eu405   2.339       .  S
O386        C409   1.296       .  A
O386       Eu402   2.492       .  S
O387        C410   1.284       .  A
O388        C411   1.296       .  A
O388       Eu404   2.493       .  S
O389        C412   1.285       .  A
O389       Eu405   2.437       .  S
O390        C413   1.296       .  A
O390       Eu561   2.493       .  S
O391        C414   1.285   1_554  A
O391       Eu404   2.435       .  S
O392        C415   1.284       .  A
O392      Eu1030   2.429   1_455  S
O393        C416   1.297       .  A
O393       Eu562   2.497       .  S
O394        C415   1.303       .  A
O394       Eu404   2.504       .  S
O395       Eu405   2.457       .  S
O396       C1035   1.289       .  A
O396       Eu402   2.457       .  S
O397       Eu403   2.496       .  S
O398        C413   1.288       .  A
O398      Eu1027   2.447       .  S
O399        C412   1.302       .  A
O400        C409   1.288       .  A
O400       Eu406   2.449       .  S
O401       C1034   1.302       .  A
O401       Eu562   2.500       .  S
Eu402       O695   2.370       .  S
Eu402       O420   2.341       .  S
Eu402       O408   2.347       .  S
Eu403       O523   2.492       .  S
Eu403      O1022   2.447       .  S
Eu403       O533   2.338       .  S
Eu403      O1165   2.348   1_455  S
Eu403      O1187   2.367   1_455  S
Eu404       O418   2.365       .  S
Eu404      O1032   2.337       .  S
Eu405       O546   2.493   1_554  S
Eu405       O407   2.348   1_554  S
Eu406      O1016   2.429       .  S
Eu406       O549   2.497   1_554  S
Eu406       O557   2.500   1_554  S
Eu406      O1042   2.366       .  S
Eu406       O420   2.351       .  S
Eu406       O408   2.366       .  S
O407      Eu1183   2.367       .  S
O408      Eu1028   2.337       .  S
C410       O1025   1.302       .  A
C411       O1020   1.289   1_455  A
C414        C500   1.481       .  S
C415        C473   1.480       .  S
H417        O574   0.966       .  S
O418      Eu1030   2.366   1_455  S
O418        H573   0.966   1_554  S
H419        O420   0.964       .  S
C421        C422   1.393       .  A
C421        C426   1.393       .  A
C421        H428   1.084       .  S
C422       C1047   1.418   1_455  A
C423       C1046   1.418       .  A
C423        C424   1.391       .  A
C423        C430   1.511       .  S
C424        C425   1.392       .  A
C424        H429   1.085       .  S
C425       C1050   1.417       .  A
C426       C1049   1.417   1_455  A
C426        C427   1.510       .  S
C427        H431   1.111       .  S
C427        H432   1.110       .  S
C427        H433   1.110       .  S
C430        H434   1.109       .  S
C430        H435   1.110       .  S
C430        H436   1.111       .  S
C437        C442   1.391       .  A
C437        H444   1.085       .  S
C438        C439   1.411       .  A
C439        C440   1.393       .  A
C439        C446   1.508       .  S
C440        H445   1.085       .  S
C441        C442   1.410       .  A
C442        C443   1.508       .  S
C443        H447   1.111       .  S
C443        H448   1.111       .  S
C443        H449   1.109       .  S
C446        H450   1.109       .  S
C446        H451   1.111       .  S
C446        H452   1.110       .  S
C453        C454   1.393       .  A
C453        C458   1.392       .  A
C453        H616   1.084   1_554  S
C454        C455   1.418       .  A
C455        C456   1.390       .  A
C455        C462   1.511       .  S
C456        C457   1.391       .  A
C456        H461   1.085       .  S
C457        C458   1.416       .  A
C458        C615   1.510   1_554  S
C459        C614   1.510       .  S
C459        H463   1.111       .  S
C459        H464   1.110       .  S
C459        H621   1.110       .  S
H460        C609   1.084       .  S
C462        H466   1.109       .  S
C462        H467   1.110       .  S
C462        H468   1.111       .  S
H465        C615   1.110   1_554  S
C469        C474   1.425       .  A
C470        C471   1.390       .  A
C470        H475   1.085       .  S
C471        C472   1.383       .  A
C471        C610   1.448       .  S
C472        H476   1.087       .  S
C473        C474   1.421       .  A
C474        H477   1.083       .  S
C478        C479   1.394       .  A
C478        C483   1.426       .  A
C478        C565   1.474       .  S
C479        C480   1.387       .  A
C479        H484   1.086       .  S
C480        C481   1.382       .  A
C480        C613   1.447       .  S
C481        C482   1.389       .  A
C481        H485   1.086       .  S
C482        C483   1.424       .  A
C482        C537   1.484       .  S
C483        H486   1.083       .  S
C487        C488   1.398       .  A
C487        C492   1.424       .  A
C487        C536   1.477       .  S
C488        C489   1.395       .  A
C488        H493   1.085       .  S
C489        C490   1.388       .  A
C489        C597   1.461       .  S
C490        C491   1.388       .  A
C490        H494   1.085       .  S
C491        C492   1.420       .  A
C491        C568   1.484       .  S
C492        H495   1.083       .  S
C496        C497   1.397       .  A
C496        C572   1.477       .  S
C497        C498   1.397       .  A
C497        H502   1.085       .  S
C498        C499   1.387       .  A
C498        C594   1.461       .  S
C499        C500   1.388       .  A
C499        H503   1.086       .  S
C501        H504   1.083       .  S
C505        C506   1.396       .  A
C505        C510   1.424       .  A
C505        C567   1.474       .  S
C506        C507   1.392       .  A
C506        H511   1.085       .  S
C507        C508   1.384       .  A
C507        C578   1.451       .  S
C508        C509   1.389       .  A
C508        H512   1.087       .  S
C509        C510   1.419       .  A
C509        C566   1.479       .  S
C510        H513   1.083       .  S
C514        C515   1.425       .  A
C514        C519   1.396       .  A
C514        C569   1.473       .  S
C515        C516   1.422       .  A
C515        H520   1.083       .  S
C516        C517   1.390       .  A
C516        C535   1.483       .  S
C517        C518   1.383       .  A
C517        H521   1.086       .  S
C518        C519   1.388       .  A
C518        C581   1.450       .  S
C519        H522   1.085       .  S
O523        C534   1.296       .  A
O524        C535   1.285       .  A
O525        C536   1.297       .  A
O525       Eu531   2.496       .  S
O526        C537   1.285       .  A
O526      Eu1155   2.436       .  S
O527        C537   1.303       .  A
O527       Eu561   2.503       .  S
O528        C536   1.288       .  A
O529        C535   1.302       .  A
O529      Eu1155   2.499       .  S
O530        C534   1.290       .  A
O530       Eu531   2.460       .  S
Eu531      O1150   2.436   1_455  S
Eu531      O1153   2.499   1_455  S
Eu531      O1165   2.368   1_455  S
Eu531       O533   2.349       .  S
Eu531      O1156   2.366   1_455  S
Eu531       O539   2.340       .  S
O532      Eu1155   2.366       .  S
O532       Eu561   2.365       .  S
H538        O539   0.964       .  S
O539       Eu870   2.370   1_465  S
H540        O541   0.964       .  S
O541      Eu1155   2.368       .  S
O541      Eu1027   2.348       .  S
O541       Eu561   2.339       .  S
O542        C565   1.296       .  A
O542       Eu558   2.492       .  S
O543        C566   1.284       .  A
O544        C567   1.296       .  A
O544       Eu560   2.493       .  S
O545        C568   1.285       .  A
O545       Eu561   2.437       .  S
O546        C569   1.296       .  A
O547        C570   1.285       .  A
O547       Eu560   2.435       .  S
O548        C571   1.284       .  A
O548      Eu1186   2.429   1_455  S
O549        C572   1.297       .  A
O550        C571   1.303       .  A
O550       Eu560   2.504       .  S
O551       Eu561   2.457       .  S
O552       C1191   1.289       .  A
O552       Eu558   2.457       .  S
O553       Eu559   2.496       .  S
O554        C569   1.288       .  A
O554      Eu1183   2.447       .  S
O555        C568   1.302       .  A
O556        C565   1.288       .  A
O556       Eu562   2.449       .  S
O557       C1190   1.302       .  A
Eu558       O851   2.370       .  S
Eu558       O576   2.341       .  S
Eu558       O564   2.347       .  S
Eu559      O1178   2.447       .  S
Eu559      O1009   2.348   1_456  S
Eu559      O1031   2.367   1_455  S
Eu560       O574   2.365       .  S
Eu560      O1188   2.337       .  S
Eu561       O563   2.348       .  S
Eu562      O1172   2.429       .  S
Eu562      O1198   2.366       .  S
Eu562       O576   2.351       .  S
Eu562       O564   2.366       .  S
O563      Eu1027   2.367       .  S
O564      Eu1184   2.337       .  S
C566       O1181   1.302       .  A
C567       O1176   1.289   1_455  A
O574      Eu1186   2.366   1_455  S
H575        O576   0.964       .  S
C577        C578   1.393       .  A
C577        C582   1.393       .  A
C577        H584   1.084       .  S
C578       C1203   1.418   1_455  A
C579       C1202   1.418       .  A
C579        C580   1.391       .  A
C579        C586   1.511       .  S
C580        C581   1.392       .  A
C580        H585   1.085       .  S
C581       C1206   1.417       .  A
C582       C1205   1.417   1_455  A
C582        C583   1.510       .  S
C583        H587   1.111       .  S
C583        H588   1.110       .  S
C583        H589   1.110       .  S
C586        H590   1.109       .  S
C586        H591   1.110       .  S
C586        H592   1.111       .  S
C593        C598   1.391       .  A
C593        H600   1.085       .  S
C594        C595   1.411       .  A
C595        C596   1.393       .  A
C595        C602   1.508       .  S
C596        H601   1.085       .  S
C597        C598   1.410       .  A
C598        C599   1.508       .  S
C599        H603   1.111       .  S
C599        H604   1.111       .  S
C599        H605   1.109       .  S
C602        H606   1.109       .  S
C602        H607   1.111       .  S
C602        H608   1.110       .  S
C609        C610   1.393       .  A
C609        C614   1.392       .  A
C610        C611   1.418       .  A
C611        C612   1.390       .  A
C611        C618   1.511       .  S
C612        C613   1.391       .  A
C612        H617   1.085       .  S
C613        C614   1.416       .  A
C615        H619   1.111       .  S
C615        H620   1.110   1_556  S
C618        H622   1.109       .  S
C618        H623   1.110       .  S
C618        H624   1.111       .  S
C625        C782   1.395       .  A
C625        C630   1.425       .  A
C625        C846   1.474       .  S
C626        C781   1.395       .  A
C626        C627   1.390       .  A
C626        H631   1.085       .  S
C627        C628   1.383       .  A
C627        C766   1.448       .  S
C628        C785   1.388       .  A
C628        H632   1.087       .  S
C629        C784   1.388       .  A
C629        C630   1.421       .  A
C629        C883   1.480       .  S
C630        H633   1.083       .  S
C634        C635   1.394       .  A
C634        C639   1.426       .  A
C634        C721   1.474       .  S
C635        C636   1.387       .  A
C635        H640   1.086       .  S
C636        C637   1.382       .  A
C636        C769   1.447       .  S
C637        C638   1.389       .  A
C637        H641   1.086       .  S
C638        C639   1.424       .  A
C638        C693   1.484       .  S
C639        H642   1.083       .  S
C643        C644   1.398       .  A
C643        C648   1.424       .  A
C643        C692   1.477       .  S
C644        C645   1.395       .  A
C644        H649   1.085       .  S
C645        C646   1.388       .  A
C645        C753   1.461       .  S
C646        C647   1.388       .  A
C646        H650   1.085       .  S
C647        C648   1.420       .  A
C647        C724   1.484       .  S
C648        H651   1.083       .  S
C652        C653   1.397       .  A
C652        C813   1.424       .  A
C652        C728   1.477       .  S
C653        C654   1.397       .  A
C653        H658   1.085       .  S
C654        C655   1.387       .  A
C654        C750   1.461       .  S
C655        C656   1.388       .  A
C655        H659   1.086       .  S
C656        C813   1.418       .  A
C656        C882   1.481       .  S
C657        C808   1.424       .  A
C657        C812   1.418       .  A
C657        H660   1.083   1_556  S
C661        C662   1.396       .  A
C661        C666   1.424       .  A
C661        C723   1.474       .  S
C662        C663   1.392       .  A
C662        H667   1.085       .  S
C663        C664   1.384       .  A
C663        C734   1.451       .  S
C664        C665   1.389       .  A
C664        H668   1.087       .  S
C665        C666   1.419       .  A
C665        C722   1.479       .  S
C666        H669   1.083       .  S
C670        C671   1.425       .  A
C670        C675   1.396       .  A
C670        C725   1.473       .  S
C671        C672   1.422       .  A
C671        H676   1.083       .  S
C672        C673   1.390       .  A
C672        C691   1.483       .  S
C673        C674   1.383       .  A
C673        H677   1.086       .  S
C674        C675   1.388       .  A
C674        C737   1.450       .  S
C675        H678   1.085       .  S
O679        C690   1.296   1_556  A
O679       Eu871   2.492       .  S
O680        C691   1.285       .  A
O680      Eu1026   2.436       .  S
O681        C692   1.297       .  A
O681       Eu687   2.496       .  S
O682        C693   1.285       .  A
O683        C693   1.303       .  A
O683       Eu717   2.503       .  S
O684        C692   1.288       .  A
O684      Eu1028   2.451       .  S
O685        C691   1.302       .  A
O686        C690   1.290       .  A
O686       Eu687   2.460       .  S
Eu687       O689   2.349       .  S
Eu687       O695   2.340       .  S
O688       Eu717   2.365       .  S
O688      Eu1026   2.365       .  S
O689       Eu871   2.338   1_554  S
O689      Eu1028   2.367       .  S
C690        C781   1.474       .  S
H694        O695   0.964       .  S
O695      Eu1028   2.352       .  S
H696        O697   0.964       .  S
O697       Eu717   2.339       .  S
O698        C721   1.296       .  A
O698       Eu714   2.492       .  S
O699        C722   1.284       .  A
O699      Eu1027   2.431   1_545  S
O700        C723   1.296       .  A
O700       Eu716   2.493       .  S
O701        C724   1.285       .  A
O701       Eu717   2.437       .  S
O702        C725   1.296       .  A
O702       Eu873   2.493       .  S
O703        C726   1.285   1_554  A
O703       Eu716   2.435       .  S
O704        C727   1.284       .  A
O705        C728   1.297       .  A
O705       Eu874   2.497       .  S
O706        C727   1.303       .  A
O706       Eu716   2.504       .  S
O707       C1196   1.289   1_554  A
O707       Eu717   2.457       .  S
O708       Eu714   2.457       .  S
O709       C1194   1.301       .  A
O709       Eu715   2.496       .  S
O710        C725   1.288   1_455  A
O711        C724   1.302       .  A
O711      Eu1026   2.502       .  S
O712        C721   1.288       .  A
O712       Eu718   2.449       .  S
O713       Eu874   2.500   1_455  S
Eu714       O992   2.436   1_545  S
Eu714      O1023   2.502   1_545  S
Eu714      O1000   2.365   1_545  S
Eu714       O732   2.341       .  S
Eu714       O720   2.347   1_655  S
Eu715       O835   2.492       .  S
Eu715      O1011   2.431       .  S
Eu715       O845   2.338       .  S
Eu715      O1198   2.364       .  S
Eu716       O996   2.451   1_545  S
Eu716      O1001   2.367   1_545  S
Eu716      O1007   2.352   1_545  S
Eu716       O730   2.365       .  S
Eu717       O858   2.493   1_554  S
Eu717       O719   2.348   1_554  S
Eu717      O1044   2.369       .  S
Eu718       O861   2.497   1_554  S
Eu718       O869   2.500   1_654  S
Eu718      O1031   2.336   1_544  S
Eu718       O732   2.351       .  S
Eu718       O720   2.366   1_655  S
O719      Eu1030   2.336   1_556  S
C726        C812   1.481       .  S
C726       O1177   1.301   1_545  A
C727        C785   1.480       .  S
C728       O1175   1.289   1_545  A
H729        O886   0.966       .  S
O730      Eu1183   2.364   1_544  S
O730        H885   0.966   1_554  S
H731        O732   0.964       .  S
O732      Eu1029   2.369   1_545  S
C733        C734   1.393       .  A
C733        C738   1.393       .  A
C733        H740   1.084       .  S
C735        C736   1.391       .  A
C735        C742   1.511       .  S
C736        C737   1.392       .  A
C736        H741   1.085       .  S
C738        C739   1.510       .  S
C739        H743   1.111       .  S
C739        H744   1.110       .  S
C739        H745   1.110       .  S
C742        H746   1.109       .  S
C742        H747   1.110       .  S
C742        H748   1.111       .  S
C749       C1062   1.405       .  A
C749        C754   1.391       .  A
C749        H756   1.085       .  S
C750       C1061   1.405   1_545  A
C750        C751   1.411       .  A
C751        C752   1.393       .  A
C751        C758   1.508       .  S
C752       C1065   1.405   1_545  A
C752        H757   1.085       .  S
C753       C1064   1.405       .  A
C753        C754   1.410       .  A
C754        C755   1.508       .  S
C755        H759   1.111       .  S
C755        H760   1.111       .  S
C755        H761   1.109       .  S
C758        H762   1.109       .  S
C758        H763   1.111       .  S
C758        H764   1.110       .  S
C765        C766   1.393       .  A
C765        C770   1.392       .  A
C765        H928   1.084   1_554  S
C766        C767   1.418       .  A
C767        C768   1.390       .  A
C767        C774   1.511       .  S
C768        C769   1.391       .  A
C768        H773   1.085       .  S
C769        C770   1.416       .  A
C770        C927   1.510   1_554  S
C771        C926   1.510       .  S
C771        H775   1.111       .  S
C771        H776   1.110       .  S
C771        H933   1.110       .  S
H772        C921   1.084       .  S
C774        H778   1.109       .  S
C774        H779   1.110       .  S
C774        H780   1.111       .  S
H777        C927   1.110   1_554  S
C781        C786   1.425       .  A
C782        C783   1.390       .  A
C782        H787   1.085       .  S
C783        C784   1.383       .  A
C783        C922   1.448       .  S
C784        H788   1.087       .  S
C785        C786   1.421       .  A
C786        H789   1.083       .  S
C790        C791   1.394       .  A
C790        C795   1.426       .  A
C790        C877   1.474       .  S
C791        C792   1.387       .  A
C791        H796   1.086       .  S
C792        C793   1.382       .  A
C792        C925   1.447       .  S
C793        C794   1.389       .  A
C793        H797   1.086       .  S
C794        C795   1.424       .  A
C794        C849   1.484       .  S
C795        H798   1.083       .  S
C799        C800   1.398       .  A
C799        C804   1.424       .  A
C799        C848   1.477       .  S
C800        C801   1.395       .  A
C800        H805   1.085       .  S
C801        C802   1.388       .  A
C801        C909   1.461       .  S
C802        C803   1.388       .  A
C802        H806   1.085       .  S
C803        C804   1.420       .  A
C803        C880   1.484       .  S
C804        H807   1.083       .  S
C808        C809   1.397       .  A
C808        C884   1.477       .  S
C809        C810   1.397       .  A
C809        H814   1.085       .  S
C810        C811   1.387       .  A
C810        C906   1.461       .  S
C811        C812   1.388       .  A
C811        H815   1.086       .  S
C813        H816   1.083       .  S
C817        C818   1.396       .  A
C817        C822   1.424       .  A
C817        C879   1.474       .  S
C818        C819   1.392       .  A
C818        H823   1.085       .  S
C819        C820   1.384       .  A
C819        C890   1.451       .  S
C820        C821   1.389       .  A
C820        H824   1.087       .  S
C821        C822   1.419       .  A
C821        C878   1.479       .  S
C822        H825   1.083       .  S
C826        C827   1.425       .  A
C826        C831   1.396       .  A
C826        C881   1.473       .  S
C827        C828   1.422       .  A
C827        H832   1.083       .  S
C828        C829   1.390       .  A
C828        C847   1.483       .  S
C829        C830   1.383       .  A
C829        H833   1.086       .  S
C830        C831   1.388       .  A
C830        C893   1.450       .  S
C831        H834   1.085       .  S
O835        C846   1.296       .  A
O836        C847   1.285       .  A
O836      Eu1182   2.436       .  S
O837        C848   1.297       .  A
O837       Eu843   2.496       .  S
O838        C849   1.285       .  A
O839        C849   1.303       .  A
O839       Eu873   2.503       .  S
O840        C848   1.288       .  A
O840      Eu1184   2.451       .  S
O841        C847   1.302       .  A
O842        C846   1.290       .  A
O842       Eu843   2.460       .  S
Eu843       O845   2.349       .  S
Eu843       O851   2.340       .  S
O844       Eu873   2.365       .  S
O844      Eu1182   2.365       .  S
O845      Eu1184   2.367       .  S
H850        O851   0.964       .  S
O851      Eu1184   2.352       .  S
H852        O853   0.964       .  S
O853       Eu873   2.339       .  S
O854        C877   1.296       .  A
O854       Eu870   2.492       .  S
O855        C878   1.284       .  A
O855      Eu1183   2.431   1_545  S
O856        C879   1.296       .  A
O856       Eu872   2.493       .  S
O857        C880   1.285       .  A
O857       Eu873   2.437       .  S
O858        C881   1.296       .  A
O859        C882   1.285       .  A
O859       Eu872   2.435       .  S
O860        C883   1.284       .  A
O861        C884   1.297       .  A
O862        C883   1.303       .  A
O862       Eu872   2.504       .  S
O863       C1040   1.289       .  A
O863       Eu873   2.457       .  S
O864       Eu870   2.457       .  S
O865       C1038   1.301       .  A
O865       Eu871   2.496       .  S
O866        C881   1.288   1_455  A
O867        C880   1.302       .  A
O867      Eu1182   2.502       .  S
O868        C877   1.288       .  A
O868       Eu874   2.449       .  S
Eu870      O1148   2.436   1_545  S
Eu870      O1179   2.502   1_545  S
Eu870      O1156   2.365   1_545  S
Eu870       O888   2.341       .  S
Eu870       O876   2.347   1_655  S
Eu871      O1167   2.431       .  S
Eu871      O1042   2.364   1_556  S
Eu872      O1152   2.451   1_545  S
Eu872      O1157   2.367   1_545  S
Eu872      O1163   2.352   1_545  S
Eu872       O886   2.365       .  S
Eu873       O875   2.348       .  S
Eu873      O1200   2.369       .  S
Eu874      O1187   2.336   1_545  S
Eu874       O888   2.351       .  S
Eu874       O876   2.366   1_655  S
O875      Eu1186   2.336       .  S
C882       O1021   1.301   1_545  A
C884       O1019   1.289   1_546  A
O886      Eu1027   2.364   1_545  S
H887        O888   0.964       .  S
O888      Eu1185   2.369   1_545  S
C889        C890   1.393       .  A
C889        C894   1.393       .  A
C889        H896   1.084       .  S
C891        C892   1.391       .  A
C891        C898   1.511       .  S
C892        C893   1.392       .  A
C892        H897   1.085       .  S
C894        C895   1.510       .  S
C895        H899   1.111       .  S
C895        H900   1.110       .  S
C895        H901   1.110       .  S
C898        H902   1.109       .  S
C898        H903   1.110       .  S
C898        H904   1.111       .  S
C905       C1218   1.405       .  A
C905        C910   1.391       .  A
C905        H912   1.085       .  S
C906       C1217   1.405   1_545  A
C906        C907   1.411       .  A
C907        C908   1.393       .  A
C907        C914   1.508       .  S
C908       C1221   1.405   1_545  A
C908        H913   1.085       .  S
C909       C1220   1.405       .  A
C909        C910   1.410       .  A
C910        C911   1.508       .  S
C911        H915   1.111       .  S
C911        H916   1.111       .  S
C911        H917   1.109       .  S
C914        H918   1.109       .  S
C914        H919   1.111       .  S
C914        H920   1.110       .  S
C921        C922   1.393       .  A
C921        C926   1.392       .  A
C922        C923   1.418       .  A
C923        C924   1.390       .  A
C923        C930   1.511       .  S
C924        C925   1.391       .  A
C924        H929   1.085       .  S
C925        C926   1.416       .  A
C927        H931   1.111       .  S
C927        H932   1.110   1_556  S
C930        H934   1.109       .  S
C930        H935   1.110       .  S
C930        H936   1.111       .  S
C937       C1094   1.395       .  A
C937        C942   1.425       .  A
C937       C1158   1.474       .  S
C938       C1093   1.395       .  A
C938        C939   1.390       .  A
C938        H943   1.085       .  S
C939        C940   1.383       .  A
C939       C1078   1.448       .  S
C940       C1097   1.388       .  A
C940        H944   1.087       .  S
C941       C1096   1.388       .  A
C941        C942   1.421       .  A
C941       C1195   1.480       .  S
C942        H945   1.083       .  S
C946        C947   1.394       .  A
C946        C951   1.426       .  A
C946       C1033   1.474       .  S
C947        C948   1.387       .  A
C947        H952   1.086       .  S
C948        C949   1.382       .  A
C948       C1081   1.447       .  S
C949        C950   1.389       .  A
C949        H953   1.086       .  S
C950        C951   1.424       .  A
C950       C1005   1.484       .  S
C951        H954   1.083       .  S
C955        C956   1.398       .  A
C955        C960   1.424       .  A
C955       C1004   1.477       .  S
C956        C957   1.395       .  A
C956        H961   1.085       .  S
C957        C958   1.388       .  A
C957       C1065   1.461       .  S
C958        C959   1.388       .  A
C958        H962   1.085       .  S
C959        C960   1.420       .  A
C959       C1036   1.484       .  S
C960        H963   1.083       .  S
C964        C965   1.397       .  A
C964       C1125   1.424       .  A
C964       C1040   1.477       .  S
C965        C966   1.397       .  A
C965        H970   1.085       .  S
C966        C967   1.387       .  A
C966       C1062   1.461       .  S
C967        C968   1.388       .  A
C967        H971   1.086       .  S
C968       C1125   1.418       .  A
C968       C1194   1.481       .  S
C969       C1120   1.424       .  A
C969       C1124   1.418       .  A
C969        H972   1.083   1_556  S
C973        C974   1.396       .  A
C973        C978   1.424       .  A
C973       C1035   1.474       .  S
C974        C975   1.392       .  A
C974        H979   1.085       .  S
C975        C976   1.384       .  A
C975       C1046   1.451       .  S
C976        C977   1.389       .  A
C976        H980   1.087       .  S
C977        C978   1.419       .  A
C977       C1034   1.479       .  S
C978        H981   1.083       .  S
C982        C983   1.425       .  A
C982        C987   1.396       .  A
C982       C1037   1.473       .  S
C983        C984   1.422       .  A
C983        H988   1.083       .  S
C984        C985   1.390       .  A
C984       C1003   1.483       .  S
C985        C986   1.383       .  A
C985        H989   1.086       .  S
C986        C987   1.388       .  A
C986       C1049   1.450       .  S
C987        H990   1.085       .  S
O991       C1002   1.296   1_556  A
O991      Eu1183   2.492       .  S
O992       C1003   1.285       .  A
O993       C1004   1.297       .  A
O993       Eu999   2.496       .  S
O994       C1005   1.285       .  A
O995       C1005   1.303       .  A
O995      Eu1029   2.503       .  S
O996       C1004   1.288       .  A
O997       C1003   1.302       .  A
O998       C1002   1.290       .  A
O998       Eu999   2.460       .  S
Eu999      O1001   2.349       .  S
Eu999      O1007   2.340       .  S
O1000     Eu1029   2.365       .  S
O1001     Eu1183   2.338   1_554  S
C1002      C1093   1.474       .  S
H1006      O1007   0.964       .  S
H1008      O1009   0.964       .  S
O1009     Eu1029   2.339       .  S
O1010      C1033   1.296       .  A
O1010     Eu1026   2.492       .  S
O1011      C1034   1.284       .  A
O1012      C1035   1.296       .  A
O1012     Eu1028   2.493       .  S
O1013      C1036   1.285       .  A
O1013     Eu1029   2.437       .  S
O1014      C1037   1.296       .  A
O1014     Eu1185   2.493       .  S
O1015      C1038   1.285   1_554  A
O1015     Eu1028   2.435       .  S
O1016      C1039   1.284       .  A
O1017      C1040   1.297       .  A
O1017     Eu1186   2.497       .  S
O1018      C1039   1.303       .  A
O1018     Eu1028   2.504       .  S
O1019     Eu1029   2.457       .  S
O1020     Eu1026   2.457       .  S
O1021     Eu1027   2.496       .  S
O1022      C1037   1.288   1_455  A
O1023      C1036   1.302       .  A
O1024      C1033   1.288       .  A
O1024     Eu1030   2.449       .  S
O1025     Eu1186   2.500   1_455  S
Eu1026     O1044   2.341       .  S
Eu1026     O1032   2.347   1_655  S
Eu1027     O1147   2.492       .  S
Eu1027     O1157   2.338       .  S
Eu1028     O1042   2.365       .  S
Eu1029     O1170   2.493   1_554  S
Eu1029     O1031   2.348   1_554  S
Eu1030     O1173   2.497   1_554  S
Eu1030     O1181   2.500   1_654  S
Eu1030     O1044   2.351       .  S
Eu1030     O1032   2.366   1_655  S
C1038      C1124   1.481       .  S
C1039      C1097   1.480       .  S
H1041      O1198   0.966       .  S
O1042      H1197   0.966   1_554  S
H1043      O1044   0.964       .  S
C1045      C1046   1.393       .  A
C1045      C1050   1.393       .  A
C1045      H1052   1.084       .  S
C1047      C1048   1.391       .  A
C1047      C1054   1.511       .  S
C1048      C1049   1.392       .  A
C1048      H1053   1.085       .  S
C1050      C1051   1.510       .  S
C1051      H1055   1.111       .  S
C1051      H1056   1.110       .  S
C1051      H1057   1.110       .  S
C1054      H1058   1.109       .  S
C1054      H1059   1.110       .  S
C1054      H1060   1.111       .  S
C1061      C1066   1.391       .  A
C1061      H1068   1.085       .  S
C1062      C1063   1.411       .  A
C1063      C1064   1.393       .  A
C1063      C1070   1.508       .  S
C1064      H1069   1.085       .  S
C1065      C1066   1.410       .  A
C1066      C1067   1.508       .  S
C1067      H1071   1.111       .  S
C1067      H1072   1.111       .  S
C1067      H1073   1.109       .  S
C1070      H1074   1.109       .  S
C1070      H1075   1.111       .  S
C1070      H1076   1.110       .  S
C1077      C1078   1.393       .  A
C1077      C1082   1.392       .  A
C1077      H1240   1.084   1_554  S
C1078      C1079   1.418       .  A
C1079      C1080   1.390       .  A
C1079      C1086   1.511       .  S
C1080      C1081   1.391       .  A
C1080      H1085   1.085       .  S
C1081      C1082   1.416       .  A
C1082      C1239   1.510   1_554  S
C1083      C1238   1.510       .  S
C1083      H1087   1.111       .  S
C1083      H1088   1.110       .  S
C1083      H1245   1.110       .  S
H1084      C1233   1.084       .  S
C1086      H1090   1.109       .  S
C1086      H1091   1.110       .  S
C1086      H1092   1.111       .  S
H1089      C1239   1.110   1_554  S
C1093      C1098   1.425       .  A
C1094      C1095   1.390       .  A
C1094      H1099   1.085       .  S
C1095      C1096   1.383       .  A
C1095      C1234   1.448       .  S
C1096      H1100   1.087       .  S
C1097      C1098   1.421       .  A
C1098      H1101   1.083       .  S
C1102      C1103   1.394       .  A
C1102      C1107   1.426       .  A
C1102      C1189   1.474       .  S
C1103      C1104   1.387       .  A
C1103      H1108   1.086       .  S
C1104      C1105   1.382       .  A
C1104      C1237   1.447       .  S
C1105      C1106   1.389       .  A
C1105      H1109   1.086       .  S
C1106      C1107   1.424       .  A
C1106      C1161   1.484       .  S
C1107      H1110   1.083       .  S
C1111      C1112   1.398       .  A
C1111      C1116   1.424       .  A
C1111      C1160   1.477       .  S
C1112      C1113   1.395       .  A
C1112      H1117   1.085       .  S
C1113      C1114   1.388       .  A
C1113      C1221   1.461       .  S
C1114      C1115   1.388       .  A
C1114      H1118   1.085       .  S
C1115      C1116   1.420       .  A
C1115      C1192   1.484       .  S
C1116      H1119   1.083       .  S
C1120      C1121   1.397       .  A
C1120      C1196   1.477       .  S
C1121      C1122   1.397       .  A
C1121      H1126   1.085       .  S
C1122      C1123   1.387       .  A
C1122      C1218   1.461       .  S
C1123      C1124   1.388       .  A
C1123      H1127   1.086       .  S
C1125      H1128   1.083       .  S
C1129      C1130   1.396       .  A
C1129      C1134   1.424       .  A
C1129      C1191   1.474       .  S
C1130      C1131   1.392       .  A
C1130      H1135   1.085       .  S
C1131      C1132   1.384       .  A
C1131      C1202   1.451       .  S
C1132      C1133   1.389       .  A
C1132      H1136   1.087       .  S
C1133      C1134   1.419       .  A
C1133      C1190   1.479       .  S
C1134      H1137   1.083       .  S
C1138      C1139   1.425       .  A
C1138      C1143   1.396       .  A
C1138      C1193   1.473       .  S
C1139      C1140   1.422       .  A
C1139      H1144   1.083       .  S
C1140      C1141   1.390       .  A
C1140      C1159   1.483       .  S
C1141      C1142   1.383       .  A
C1141      H1145   1.086       .  S
C1142      C1143   1.388       .  A
C1142      C1205   1.450       .  S
C1143      H1146   1.085       .  S
O1147      C1158   1.296       .  A
O1148      C1159   1.285       .  A
O1149      C1160   1.297       .  A
O1149     Eu1155   2.496       .  S
O1150      C1161   1.285       .  A
O1151      C1161   1.303       .  A
O1151     Eu1185   2.503       .  S
O1152      C1160   1.288       .  A
O1153      C1159   1.302       .  A
O1154      C1158   1.290       .  A
O1154     Eu1155   2.460       .  S
Eu1155     O1157   2.349       .  S
Eu1155     O1163   2.340       .  S
O1156     Eu1185   2.365       .  S
H1162      O1163   0.964       .  S
H1164      O1165   0.964       .  S
O1165     Eu1185   2.339       .  S
O1166      C1189   1.296       .  A
O1166     Eu1182   2.492       .  S
O1167      C1190   1.284       .  A
O1168      C1191   1.296       .  A
O1168     Eu1184   2.493       .  S
O1169      C1192   1.285       .  A
O1169     Eu1185   2.437       .  S
O1170      C1193   1.296       .  A
O1171      C1194   1.285       .  A
O1171     Eu1184   2.435       .  S
O1172      C1195   1.284       .  A
O1173      C1196   1.297       .  A
O1174      C1195   1.303       .  A
O1174     Eu1184   2.504       .  S
O1175     Eu1185   2.457       .  S
O1176     Eu1182   2.457       .  S
O1177     Eu1183   2.496       .  S
O1178      C1193   1.288   1_455  A
O1179      C1192   1.302       .  A
O1180      C1189   1.288       .  A
O1180     Eu1186   2.449       .  S
Eu1182     O1200   2.341       .  S
Eu1182     O1188   2.347   1_655  S
Eu1184     O1198   2.365       .  S
Eu1185     O1187   2.348       .  S
Eu1186     O1200   2.351       .  S
Eu1186     O1188   2.366   1_655  S
H1199      O1200   0.964       .  S
C1201      C1202   1.393       .  A
C1201      C1206   1.393       .  A
C1201      H1208   1.084       .  S
C1203      C1204   1.391       .  A
C1203      C1210   1.511       .  S
C1204      C1205   1.392       .  A
C1204      H1209   1.085       .  S
C1206      C1207   1.510       .  S
C1207      H1211   1.111       .  S
C1207      H1212   1.110       .  S
C1207      H1213   1.110       .  S
C1210      H1214   1.109       .  S
C1210      H1215   1.110       .  S
C1210      H1216   1.111       .  S
C1217      C1222   1.391       .  A
C1217      H1224   1.085       .  S
C1218      C1219   1.411       .  A
C1219      C1220   1.393       .  A
C1219      C1226   1.508       .  S
C1220      H1225   1.085       .  S
C1221      C1222   1.410       .  A
C1222      C1223   1.508       .  S
C1223      H1227   1.111       .  S
C1223      H1228   1.111       .  S
C1223      H1229   1.109       .  S
C1226      H1230   1.109       .  S
C1226      H1231   1.111       .  S
C1226      H1232   1.110       .  S
C1233      C1234   1.393       .  A
C1233      C1238   1.392       .  A
C1234      C1235   1.418       .  A
C1235      C1236   1.390       .  A
C1235      C1242   1.511       .  S
C1236      C1237   1.391       .  A
C1236      H1241   1.085       .  S
C1237      C1238   1.416       .  A
C1239      H1243   1.111       .  S
C1239      H1244   1.110   1_556  S
C1242      H1246   1.109       .  S
C1242      H1247   1.110       .  S
C1242      H1248   1.111       .  S
