geometry optimzed in LAMMPS
_audit_creation_date              2020-12-01 
_audit_creation_method            'lammps2cif' 
_symmetry_space_group_name_H-M    'P1' 
_symmetry_Int_Tables_number       1 
_symmetry_cell_setting            triclinic 
loop_ 
_symmetry_equiv_pos_as_xyz 
  x,y,z 
_cell_length_a                    55.3182449 
_cell_length_b                    50.276452407592394 
_cell_length_c                    28.604673016230425 
_cell_angle_alpha                 93.50047668137509 
_cell_angle_beta                  90.09475272223177 
_cell_angle_gamma                 123.19579467010476 
loop_ 
_atom_site_label 
_atom_site_type_symbol 
_atom_site_fract_x 
_atom_site_fract_y 
_atom_site_fract_z 
_atom_site_charge 
C1          C  0.36050085  0.17508697  0.00367990     0.80100
N2          N  0.37461202  0.20724841  0.00477488    -0.78200
C3          C  0.36001057  0.22168480  0.00147546     0.82500
N4          N  0.33067085  0.20315377  0.99858706    -0.78200
C5          C  0.31605844  0.17093483  0.99892433     0.82600
N6          N  0.33114983  0.15692065  0.00100128    -0.79900
C7          C  0.35982303  0.17517076  0.25891772     0.80100
N8          N  0.33058260  0.15541318  0.25987923    -0.78200
C9          C  0.31368902  0.16734588  0.25950974     0.82500
N10         N  0.32615136  0.19921269  0.25822478    -0.78200
C11         C  0.35527626  0.21909988  0.25705720     0.82600
N12         N  0.37213734  0.20710824  0.25794155    -0.79900
C13         C  0.17564671  0.37394119  0.17991404     0.80100
N14         N  0.20487518  0.39081108  0.18539873    -0.78200
C15         C  0.21887258  0.37557394  0.18684276     0.82500
N16         N  0.20331421  0.34325138  0.18325374    -0.78200
C17         C  0.17406768  0.32614500  0.17839721     0.82600
N18         N  0.16023800  0.34159015  0.17613638    -0.79900
C19         C  0.16440764  0.36721045  0.44549385     0.80100
N20         N  0.15061240  0.33503681  0.43774263    -0.78200
C21         C  0.16516258  0.32059298  0.42968159     0.82500
N22         N  0.19448471  0.33922190  0.42905650    -0.78200
C23         C  0.20903431  0.37138680  0.43752468     0.82600
N24         N  0.19392599  0.38529052  0.44577109    -0.79900
C25         C  0.10325932  0.05609539  0.05633134     0.76300
Tb26       Tb  0.48107842  0.02527768  0.09651380     1.80700
O27         O  0.09817135  0.06257475  0.09689945    -0.51700
O28         O  0.07929019  0.51340938  0.14887990    -0.59200
C29         C  0.04799409  0.08676631  0.12743618     0.92100
O30         O  0.45661545  0.05153450  0.10923293    -0.58700
Tb31       Tb  0.04929075  0.02054267  0.09731831     1.78100
O32         O  0.45032795  0.48592247  0.14819977    -0.59200
O33         O  0.00520522  0.47078431  0.09024393    -0.78000
O34         O  0.05991550  0.07251136  0.11230201    -0.77300
O35         O  0.03245404  0.01627946  0.01915946    -0.62600
C36         C  0.48078149  0.46023377  0.06990216     0.91700
O37         O  0.99698539  0.02796839  0.17489662    -0.74500
C38         C  0.42687683  0.98088410  0.12884510     0.75100
C39         C  0.07510185  0.48831841  0.12810689     0.76100
O40         O  0.08110929  0.03251499  0.03512156    -0.59800
O41         O  0.05706995  0.47838309  0.09409089    -0.51700
O42         O  0.99723154  0.02560168  0.01981787    -0.77800
O43         O  0.03308261  0.01989231  0.17463538    -0.61800
C44         C  0.01461537  0.02341740  0.19616416     0.89900
C45         C  0.01459203  0.02049976  0.99804844     0.91100
C46         C  0.45912835  0.06176063  0.06935409     0.75500
O47         O  0.43047823  0.99482072  0.09204511    -0.51100
O48         O  0.47386341  0.05524608  0.04353838    -0.52300
O49         O  0.47211097  0.47800957  0.06035198    -0.65100
O50         O  0.02085985  0.07269534  0.13032412    -0.66300
C51         C  0.10130150  0.04478740  0.32361056     0.76300
Tb52       Tb  0.47727827  0.02154508  0.34840658     1.80700
O53         O  0.09210865  0.04952482  0.36143042    -0.51700
O54         O  0.04096347  0.47546965  0.40078014    -0.59200
C55         C  0.04630819  0.07956159  0.37450072     0.92100
O56         O  0.48214465  0.07101457  0.33843220    -0.58700
Tb57       Tb  0.04245680  0.01027551  0.34520898     1.78100
O58         O  0.43760524  0.51461045  0.38986918    -0.59200
O59         O  0.99716906  0.46498624  0.31955377    -0.78000
O60         O  0.05665406  0.06390847  0.35782432    -0.77300
O61         O  0.02950771  0.01442539  0.26849113    -0.62600
C62         C  0.47290250  0.45682487  0.30088416     0.91700
O63         O  0.99412349  0.02094731  0.42469026    -0.74500
C64         C  0.42380283  0.98530588  0.39376161     0.75100
C65         C  0.05195656  0.46326704  0.37636804     0.76100
O66         O  0.08125628  0.02295098  0.29669911    -0.59800
O67         O  0.05758045  0.47401194  0.33646645    -0.51700
O68         O  0.99530045  0.02555539  0.27094430    -0.77800
O69         O  0.03174140  0.01545955  0.42372987    -0.61800
C70         C  0.01339483  0.01880242  0.44558580     0.89900
C71         C  0.01324426  0.02142424  0.24849420     0.91100
C72         C  0.45781055  0.05967919  0.31832761     0.75500
O73         O  0.43767644  0.97375804  0.37754044    -0.51100
O74         O  0.44412017  0.02988313  0.31138803    -0.52300
O75         O  0.46434579  0.47565317  0.30176746    -0.65100
O76         O  0.01963461  0.06705364  0.38139967    -0.66300
C77         C  0.06617631  0.11445677  0.38526463     0.01200
C78         C  0.06965783  0.12826520  0.43128058     0.04000
C79         C  0.08594868  0.16169968  0.44002378    -0.12100
C80         C  0.10087562  0.18146697  0.40361094     0.23300
C81         C  0.09919050  0.16756561  0.35849320    -0.12600
C82         C  0.08069434  0.13438029  0.34877898     0.04700
C83         C  0.11719206  0.21686068  0.41170560     0.27100
C84         C  0.10425652  0.23299035  0.39888072    -0.13300
C85         C  0.12011494  0.26660002  0.40268989     0.05200
C86         C  0.14898097  0.28475755  0.42224626    -0.09300
C87         C  0.16167592  0.26798026  0.43565786     0.06000
C88         C  0.14589553  0.23435289  0.42973627    -0.13600
Br89       Br  0.12276363  0.19421346  0.31048624    -0.05700
Br90       Br  0.05325407  0.10155633  0.48269266    -0.00100
Br91       Br  0.10189142  0.28652747  0.37716229     0.00400
Br92       Br  0.16345037  0.21168185  0.44619045    -0.04100
Br93       Br  0.07352396  0.11651328  0.28495365     0.00500
Br94       Br  0.08723103  0.18052578  0.50143639    -0.03300
Br95       Br  0.06427731  0.20843586  0.37623287    -0.04200
Br96       Br  0.20033941  0.28962817  0.96357553    -0.00200
C97         C  0.39415167  0.46673587  0.41355848     0.01200
C98         C  0.37440511  0.43375658  0.40128858     0.04000
C99         C  0.34457850  0.41894406  0.40918969    -0.12100
C100        C  0.33404077  0.43669362  0.42965967     0.23300
C101        C  0.35387691  0.46851728  0.44649241    -0.12600
C102        C  0.38329870  0.98333121  0.43842969     0.04700
C103        C  0.30214600  0.42186984  0.43315731     0.27100
C104        C  0.28590646  0.42250301  0.39562468    -0.13300
C105        C  0.25555407  0.40678253  0.39751218     0.05200
C106        C  0.24120561  0.39075693  0.43733377    -0.09300
C107        C  0.25758244  0.39097942  0.47543206     0.06000
C108        C  0.28786724  0.40637653  0.47328059    -0.13600
Br109      Br  0.33947325  0.99261394  0.47650538    -0.05700
Br110      Br  0.38737834  0.40812705  0.37400601    -0.00100
Br111      Br  0.23342198  0.40587606  0.34460417     0.00400
Br112      Br  0.30996137  0.40573736  0.02470270    -0.04100
Br113      Br  0.40969580  0.02568313  0.46646270     0.00500
Br114      Br  0.31770906  0.37421819  0.39128493    -0.03300
Br115      Br  0.30541210  0.44469069  0.34137605    -0.04200
Br116      Br  0.23841257  0.36994588  0.03054160    -0.00200
C117        C  0.05952328  0.44073223  0.39353971     0.01200
C118        C  0.06741018  0.42389226  0.36211231     0.04000
C119        C  0.07955596  0.40780997  0.37929611    -0.12100
C120        C  0.08704515  0.41107502  0.42715468     0.23300
C121        C  0.07614598  0.42421943  0.45895594    -0.12600
C122        C  0.06098874  0.43731769  0.44223017     0.04700
C123        C  0.10815050  0.40280527  0.44166607     0.27100
C124        C  0.09890575  0.37390825  0.46148985    -0.13300
C125        C  0.11818751  0.36399211  0.46717349     0.05200
C126        C  0.14666221  0.38181010  0.45000687    -0.09300
C127        C  0.15637966  0.41202788  0.43308471     0.06000
C128        C  0.13724903  0.42229529  0.42922260    -0.13600
Br129      Br  0.08180615  0.42450813  0.52532344    -0.05700
Br130      Br  0.06168290  0.42136772  0.29535279    -0.00100
Br131      Br  0.10518715  0.32654502  0.50107201     0.00400
Br132      Br  0.15035104  0.46263217  0.40361903    -0.04100
Br133      Br  0.04161106  0.44917244  0.48673594     0.00500
Br134      Br  0.08577492  0.38042791  0.33785179    -0.03300
Br135      Br  0.05908339  0.34669624  0.47790538    -0.04200
Br136      Br  0.19526545  0.43978087  0.41257132    -0.00200
C137        C  0.15751480  0.29095068  0.17494790     0.01200
C138        C  0.13503929  0.27368826  0.20569399     0.04000
C139        C  0.11829146  0.24020181  0.20105703    -0.12100
C140        C  0.12440196  0.22372266  0.16633630     0.23300
C141        C  0.14751582  0.24092986  0.13662512    -0.12600
C142        C  0.16401042  0.27445179  0.14086768     0.04700
C143        C  0.10483068  0.18857602  0.15825614     0.27100
C144        C  0.11342045  0.16830656  0.17158662    -0.13300
C145        C  0.09460724  0.13498983  0.16305748     0.05200
C146        C  0.06677515  0.12163988  0.14155392    -0.09300
C147        C  0.05770077  0.14230520  0.13180148     0.06000
C148        C  0.07708199  0.17548058  0.13788531    -0.13600
Br149      Br  0.15570768  0.21862396  0.08841862    -0.05700
Br150      Br  0.12773198  0.29579667  0.25542877    -0.00100
Br151      Br  0.10661311  0.10808045  0.18488067     0.00400
Br152      Br  0.06580751  0.20333322  0.11702108    -0.04100
Br153      Br  0.19434339  0.29745507  0.09784946     0.00500
Br154      Br  0.08587787  0.21698587  0.24068369    -0.03300
Br155      Br  0.15119127  0.18627229  0.20110036    -0.04200
Br156      Br  0.01865355  0.12665654  0.11211075    -0.00200
C157        C  0.39916649  0.46291583  0.15175738     0.01200
C158        C  0.37806741  0.43176137  0.13422912     0.04000
C159        C  0.34951711  0.41721146  0.14866405    -0.12100
C160        C  0.34184122  0.43480819  0.17804611     0.21900
C161        C  0.36326810  0.46558846  0.19694818    -0.12600
C162        C  0.39205235  0.47935209  0.18452532     0.04700
C163        C  0.31098319  0.42231352  0.18456651     0.27100
C164        C  0.29698664  0.43241187  0.15643496    -0.13300
C165        C  0.26704181  0.41833432  0.15870473     0.05200
C166        C  0.25084890  0.39367611  0.18897542    -0.09300
C167        C  0.26534389  0.38490640  0.21900236     0.06000
C168        C  0.29540136  0.39949937  0.21704329    -0.13600
Br169      Br  0.35268402  0.48977382  0.23645557    -0.05700
Br170      Br  0.38747166  0.91079459  0.08471441    -0.00100
Br171      Br  0.24874405  0.43204627  0.11760455     0.00400
Br172      Br  0.31549505  0.38821329  0.25836741    -0.04100
Br173      Br  0.42142115  0.52200696  0.20870430     0.00500
Br174      Br  0.32070388  0.37377570  0.12672766    -0.03300
Br175      Br  0.31838190  0.96563632  0.11344196    -0.04200
Br176      Br  0.24446774  0.35320434  0.26350430    -0.00200
C177        C  0.09074699  0.47298032  0.14037995     0.01200
C178        C  0.07535286  0.43992792  0.14601874     0.04000
C179        C  0.09024216  0.42508782  0.15470833    -0.12100
C180        C  0.12070525  0.44271018  0.15523444     0.23300
C181        C  0.13617893  0.47555211  0.14867276    -0.12600
C182        C  0.12135535  0.49084649  0.14286528     0.04700
C183        C  0.13619956  0.42635961  0.16184122     0.27100
C184        C  0.14084884  0.41991580  0.20716498    -0.13300
C185        C  0.15284296  0.40176089  0.21312703     0.05200
C186        C  0.16118500  0.39091056  0.17386383    -0.09300
C187        C  0.15770575  0.39832241  0.12875154     0.06000
C188        C  0.14550197  0.41622833  0.12276097    -0.13600
Br189      Br  0.17768148  0.49905240  0.14503725    -0.05700
Br190      Br  0.03377518  0.41454876  0.14133901    -0.00100
Br191      Br  0.15779886  0.39148524  0.27488883     0.00400
Br192      Br  0.14332312  0.42843047  0.06133709    -0.04100
Br193      Br  0.14302434  0.03547051  0.13420961     0.00500
Br194      Br  0.06885269  0.38017943  0.16443536    -0.03300
Br195      Br  0.13262101  0.43774071  0.26117159    -0.04200
Br196      Br  0.16992167  0.38396031  0.07522601    -0.00200
C197        C  0.37796957  0.16196632  0.26276962     0.01200
C198        C  0.39644411  0.17035966  0.30275062     0.04000
C199        C  0.41103742  0.15501701  0.30921967    -0.12100
C200        C  0.40769902  0.13156436  0.27542934     0.23300
C201        C  0.39029241  0.12410509  0.23454224    -0.12600
C202        C  0.37534138  0.13912680  0.22825143     0.04700
C203        C  0.42070916  0.11309128  0.28471252     0.27100
C204        C  0.45020526  0.12590767  0.27749352    -0.13300
C205        C  0.46259235  0.10870330  0.28836754     0.05200
C206        C  0.44543450  0.07851002  0.30677091    -0.09300
C207        C  0.41583911  0.06600522  0.31419564     0.06000
C208        C  0.40349936  0.08292835  0.30239403    -0.13600
Br209      Br  0.38635564  0.09237535  0.18826503    -0.05700
Br210      Br  0.40066023  0.20144333  0.35045231    -0.00100
Br211      Br  0.50277928  0.12637861  0.27641849     0.00400
Br212      Br  0.36273248  0.06476866  0.31056704    -0.04100
Br213      Br  0.35151081  0.12861564  0.17213128     0.00500
Br214      Br  0.43464094  0.16502479  0.36551694    -0.03300
Br215      Br  0.47335615  0.16699710  0.25212838    -0.04200
Br216      Br  0.39197212  0.02678276  0.34392959    -0.00200
C217        C  0.36863400  0.25380475  0.25904325     0.01200
C218        C  0.36922535  0.26880500  0.21866159     0.04000
C219        C  0.38310606  0.30219554  0.22079727    -0.12100
C220        C  0.39809513  0.32077167  0.26241824     0.23300
C221        C  0.39720737  0.30550398  0.30273852    -0.12600
C222        C  0.38109886  0.27211770  0.30168495     0.04700
C223        C  0.41677443  0.35616751  0.26325055     0.27100
C224        C  0.44687627  0.37118672  0.26155826    -0.13300
C225        C  0.46518117  0.40447806  0.26929239     0.05200
C226        C  0.45365997  0.42331358  0.27894350    -0.09300
C227        C  0.42339830  0.40852400  0.27109471     0.06000
C228        C  0.40496286  0.37490976  0.26631419    -0.13600
Br229      Br  0.41975948  0.33013048  0.35856847    -0.05700
Br230      Br  0.35174118  0.24367381  0.16032735    -0.00100
Br231      Br  0.00573476  0.42408927  0.25986614     0.00400
Br232      Br  0.36353827  0.35441966  0.26623996    -0.04100
Br233      Br  0.37460248  0.25150985  0.35922761     0.00500
Br234      Br  0.38210576  0.32249452  0.16667905    -0.03300
Br235      Br  0.46303188  0.34579082  0.24977391    -0.04200
Br236      Br  0.40686019  0.43317775  0.26123433    -0.00200
C237        C  0.13232312  0.06242438  0.31216939     0.01200
C238        C  0.15054727  0.09585722  0.32173395     0.04000
C239        C  0.17976019  0.11229788  0.30973468    -0.12100
C240        C  0.19131431  0.09533091  0.29045455     0.23300
C241        C  0.17334674  0.06216388  0.28094912    -0.12600
C242        C  0.14392917  0.04580148  0.29114342     0.04700
C243        C  0.22253410  0.11226295  0.28100009     0.27100
C244        C  0.23294293  0.12813231  0.23963871    -0.13300
C245        C  0.26273700  0.14527998  0.23173453     0.05200
C246        C  0.28219707  0.14645868  0.26506553    -0.09300
C247        C  0.27155158  0.12942868  0.30554402     0.06000
C248        C  0.24178559  0.11232320  0.31339897    -0.13600
Br249      Br  0.18943556  0.03929613  0.25421616    -0.05700
Br250      Br  0.13580609  0.11973535  0.34992090    -0.00100
Br251      Br  0.27675449  0.16651071  0.17468831     0.00400
Br252      Br  0.22732243  0.08897994  0.36868906    -0.04100
Br253      Br  0.12030774  0.00030920  0.27834973     0.00500
Br254      Br  0.20397667  0.15825441  0.31822060    -0.03300
Br255      Br  0.20620027  0.12631534  0.19406815    -0.04200
Br256      Br  0.29770459  0.13079837  0.35179703    -0.00200
C257        C  0.44550879  0.07877293  0.05476442     0.01200
C258        C  0.45963285  0.10433683  0.52524834     0.04000
C259        C  0.44736879  0.12175406  0.51553051    -0.12100
C260        C  0.41995586  0.11214530  0.03168562     0.23300
C261        C  0.40429268  0.08452546  0.05607330    -0.12600
C262        C  0.41723690  0.06838943  0.06876194     0.04700
C263        C  0.40694446  0.13041589  0.02227019     0.27100
C264        C  0.41017133  0.15381670  0.05606658    -0.13300
C265        C  0.39521563  0.16873373  0.04971542     0.05200
C266        C  0.37703657  0.16029384  0.00932394    -0.09300
C267        C  0.37468346  0.13764675  0.47475631     0.06000
C268        C  0.38958362  0.12268914  0.48131877    -0.13600
Br269      Br  0.36431610  0.06788817  0.06919200    -0.05700
Br270      Br  0.49483464  0.11507490  0.49556326    -0.00100
Br271      Br  0.39855720  0.19944460  0.09779234     0.00400
Br272      Br  0.38586084  0.09097294  0.43501289    -0.04100
Br273      Br  0.39414643  0.02954090  0.09949491     0.00500
Br274      Br  0.46776000  0.15861882  0.47944678    -0.03300
Br275      Br  0.43471135  0.16485518  0.11150152    -0.04200
Br276      Br  0.35178966  0.12762568  0.41780412    -0.00200
C277        C  0.46152428  0.42559542  0.05691144     0.01200
C278        C  0.45855887  0.40368240  0.08856624     0.04000
C279        C  0.44317662  0.37101928  0.07484035    -0.12100
C280        C  0.42666105  0.35948084  0.03236805     0.23300
C281        C  0.42722784  0.38098097  0.00249700    -0.12600
C282        C  0.44568017  0.41400609  0.01347550     0.04700
C283        C  0.40870250  0.32473025  0.01949937     0.27100
C284        C  0.42148573  0.30952359  0.99904702    -0.13300
C285        C  0.40536805  0.27612254  0.49105782     0.05200
C286        C  0.37607747  0.25737196  0.00457153    -0.09300
C287        C  0.36298123  0.27339638  0.02286295     0.06000
C288        C  0.37922028  0.30688481  0.02924092    -0.13600
Br289      Br  0.40235095  0.36495756  0.44699553    -0.05700
Br290      Br  0.47156634  0.41765070  0.15288456    -0.00100
Br291      Br  0.42444257  0.25753581  0.46024015     0.00400
Br292      Br  0.36099942  0.32867076  0.05111809    -0.04100
Br293      Br  0.44936953  0.44266280  0.46804903     0.00500
Br294      Br  0.44582980  0.34241819  0.11330832    -0.03300
Br295      Br  0.46148273  0.33508762  0.48208335    -0.04200
Br296      Br  0.32344758  0.25106259  0.04266098    -0.00200
C297        C  0.28411673  0.15193157  0.00212004     0.01200
C298        C  0.26682811  0.15643403  0.47133667     0.04000
C299        C  0.23681559  0.14034646  0.47684679    -0.12100
C300        C  0.22383308  0.12011421  0.01343417     0.23300
C301        C  0.24087794  0.11524677  0.04392973    -0.12600
C302        C  0.27088533  0.13095158  0.03828086     0.04700
C303        C  0.19227776  0.10427273  0.02013120     0.27100
C304        C  0.18143008  0.12175318  0.04049893    -0.13300
C305        C  0.15165710  0.10649800  0.04783110     0.05200
C306        C  0.13278445  0.07325671  0.03778849    -0.09300
C307        C  0.14352304  0.05617477  0.01517471     0.06000
C308        C  0.17304337  0.07181173  0.00560361    -0.13600
Br309      Br  0.22309387  0.08760277  0.09432465    -0.05700
Br310      Br  0.28386943  0.18423504  0.42092227    -0.00100
Br311      Br  0.13656303  0.13166781  0.06855169     0.00400
Br312      Br  0.18736974  0.04861679  0.97330376    -0.04100
Br313      Br  0.29370968  0.12499084  0.08251612     0.00500
Br314      Br  0.21310702  0.14594165  0.43449688    -0.03300
Br315      Br  0.20750135  0.16653795  0.05925177    -0.04200
Br316      Br  0.11881178  0.01091079  0.00018945    -0.00200
C317        C  0.36049971  0.17508628  0.50368342     0.80100
N318        N  0.37461176  0.20724780  0.50477858    -0.78200
C319        C  0.36001114  0.22168502  0.50147756     0.82500
N320        N  0.33067138  0.20315484  0.49858739    -0.78200
C321        C  0.31605808  0.17093584  0.49892473     0.82600
N322        N  0.33114868  0.15692081  0.50100311    -0.79900
C323        C  0.35981967  0.17516897  0.75892080     0.80100
N324        N  0.33057919  0.15541164  0.75988134    -0.78200
C325        C  0.31368586  0.16734464  0.75951218     0.82500
N326        N  0.32614853  0.19921159  0.75822841    -0.78200
C327        C  0.35527351  0.21909859  0.75706179     0.82600
N328        N  0.37213432  0.20710659  0.75794573    -0.79900
C329        C  0.17564678  0.37394003  0.67991075     0.80100
N330        N  0.20487531  0.39080899  0.68539441    -0.78200
C331        C  0.21887187  0.37557084  0.68683698     0.82500
N332        N  0.20331270  0.34324829  0.68324707    -0.78200
C333        C  0.17406620  0.32614280  0.67839143     0.82600
N334        N  0.16023724  0.34158890  0.67613250    -0.79900
C335        C  0.16440816  0.36721032  0.94549523     0.80100
N336        N  0.15061344  0.33503670  0.93774430    -0.78200
C337        C  0.16516414  0.32059338  0.92968392     0.82500
N338        N  0.19448625  0.33922280  0.92905916    -0.78200
C339        C  0.20903538  0.37138766  0.93752719     0.82600
N340        N  0.19392656  0.38529090  0.94577300    -0.79900
C341        C  0.10325834  0.05609492  0.55632980     0.76300
Tb342      Tb  0.48107793  0.02527593  0.59651326     1.80700
O343        O  0.09817105  0.06257321  0.59689917    -0.51700
O344        O  0.07928938  0.51340872  0.64888085    -0.59200
C345        C  0.04799288  0.08676365  0.62744065     0.92100
O346        O  0.45661441  0.05153201  0.60923450    -0.58700
Tb347      Tb  0.04929061  0.02054084  0.59731920     1.78100
O348        O  0.45032722  0.48591430  0.64819332    -0.59200
O349        O  0.00520483  0.47078351  0.59024479    -0.78000
O350        O  0.05991485  0.07250885  0.61230876    -0.77300
O351        O  0.03245481  0.01627880  0.51915977    -0.62600
C352        C  0.48078134  0.46023338  0.56990226     0.91700
O353        O  0.99698418  0.02796602  0.67489614    -0.74500
C354        C  0.42687687  0.98088092  0.62884462     0.75100
C355        C  0.07510220  0.48831847  0.62810706     0.76100
O356        O  0.08110805  0.03251471  0.53512018    -0.59800
O357        O  0.05707101  0.47838341  0.59408998    -0.51700
O358        O  0.99723205  0.02560072  0.51981761    -0.77800
O359        O  0.03308193  0.01989071  0.67463614    -0.61800
C360        C  0.01461426  0.02341545  0.69616430     0.89900
C361        C  0.01459298  0.02049930  0.49804842     0.91100
C362        C  0.45912694  0.06175866  0.56935617     0.75500
O363        O  0.43047786  0.99482097  0.59204840    -0.51100
O364        O  0.47386194  0.05524458  0.54353940    -0.52300
O365        O  0.47211082  0.47800907  0.56035166    -0.65100
O366        O  0.02085846  0.07269273  0.63032468    -0.66300
C367        C  0.10129815  0.04478611  0.82360850     0.76300
Tb368      Tb  0.47727743  0.02154535  0.84840618     1.80700
O369        O  0.09210600  0.04952256  0.86142990    -0.51700
O370        O  0.04096341  0.47546929  0.90078162    -0.59200
C371        C  0.04630761  0.07956168  0.87450527     0.92100
O372        O  0.48214227  0.07101365  0.83842778    -0.58700
Tb373      Tb  0.04245411  0.01027330  0.84521010     1.78100
O374        O  0.43760633  0.51461107  0.88987096    -0.59200
O375        O  0.99716844  0.46498571  0.81955711    -0.78000
O376        O  0.05665337  0.06390645  0.85783742    -0.77300
O377        O  0.02950580  0.01442350  0.76849202    -0.62600
C378        C  0.47290212  0.45682437  0.80088667     0.91700
O379        O  0.99412305  0.02094866  0.92469013    -0.74500
C380        C  0.42380298  0.98530642  0.89376364     0.75100
C381        C  0.05195666  0.46326667  0.87637002     0.76100
O382        O  0.08125251  0.02295030  0.79669688    -0.59800
O383        O  0.05758073  0.47401148  0.83646838    -0.51700
O384        O  0.99529900  0.02555413  0.77094387    -0.77800
O385        O  0.03173895  0.01545742  0.92373044    -0.61800
C386        C  0.01339348  0.01880233  0.94558596     0.89900
C387        C  0.01324274  0.02142253  0.74849438     0.91100
C388        C  0.45780736  0.05967682  0.81832520     0.75500
O389        O  0.43767655  0.97375864  0.87754198    -0.51100
O390        O  0.44411732  0.02988063  0.81138870    -0.52300
O391        O  0.46434648  0.47565361  0.80176705    -0.65100
O392        O  0.01963325  0.06705644  0.88139391    -0.66300
C393        C  0.06617702  0.11445678  0.88526863     0.01200
C394        C  0.06966020  0.12826630  0.93128430     0.04000
C395        C  0.08595293  0.16170101  0.94002620    -0.12100
C396        C  0.10087924  0.18146724  0.90361190     0.23300
C397        C  0.09919207  0.16756456  0.85849428    -0.12600
C398        C  0.08069461  0.13437922  0.84878178     0.04700
C399        C  0.11719587  0.21686116  0.91170473     0.27100
C400        C  0.10425948  0.23299030  0.89888158    -0.13300
C401        C  0.12011723  0.26659995  0.90269136     0.05200
C402        C  0.14898315  0.28475800  0.92224811    -0.09300
C403        C  0.16167882  0.26798128  0.93565887     0.06000
C404        C  0.14589964  0.23435401  0.92973423    -0.13600
Br405      Br  0.12276404  0.19421055  0.81048491    -0.05700
Br406      Br  0.05325522  0.10155854  0.98269724    -0.00100
Br407      Br  0.10189275  0.28652665  0.87716474     0.00400
Br408      Br  0.16345670  0.21168415  0.94618207    -0.04100
Br409      Br  0.07352204  0.11651036  0.78495722     0.00500
Br410      Br  0.08723867  0.18052911  0.00143896    -0.03300
Br411      Br  0.06427996  0.20843514  0.87623537    -0.04200
Br412      Br  0.20033772  0.28962655  0.46356924    -0.00200
C413        C  0.39415273  0.46673666  0.91356070     0.01200
C414        C  0.37440611  0.43375730  0.90129153     0.04000
C415        C  0.34457955  0.41894488  0.90919304    -0.12100
C416        C  0.33404189  0.43669471  0.92966230     0.23300
C417        C  0.35387810  0.46851846  0.94649441    -0.12600
C418        C  0.38329887  0.98333147  0.93843241     0.04700
C419        C  0.30214713  0.42187112  0.93315982     0.27100
C420        C  0.28590738  0.42250261  0.89562596    -0.13300
C421        C  0.25555498  0.40678210  0.89751344     0.05200
C422        C  0.24120671  0.39075823  0.93733629    -0.09300
C423        C  0.25758376  0.39098247  0.97543578     0.06000
C424        C  0.28786859  0.40637981  0.97328439    -0.13600
Br425      Br  0.33947306  0.99261280  0.97651056    -0.05700
Br426      Br  0.38737910  0.40812759  0.87400892    -0.00100
Br427      Br  0.23342265  0.40587304  0.84460371     0.00400
Br428      Br  0.30995946  0.40573064  0.52469677    -0.04100
Br429      Br  0.40969543  0.02568431  0.96646259     0.00500
Br430      Br  0.31771012  0.37421876  0.89129002    -0.03300
Br431      Br  0.30541285  0.44468839  0.84137599    -0.04200
Br432      Br  0.23841103  0.36994129  0.53053678    -0.00200
C433        C  0.05952327  0.44073185  0.89354216     0.01200
C434        C  0.06741028  0.42389186  0.86211509     0.04000
C435        C  0.07955602  0.40780962  0.87929922    -0.12100
C436        C  0.08704484  0.41107443  0.92715794     0.23300
C437        C  0.07614534  0.42421869  0.95895887    -0.12600
C438        C  0.06098841  0.43731723  0.94223267     0.04700
C439        C  0.10815036  0.40280485  0.94166944     0.27100
C440        C  0.09890576  0.37390758  0.96149234    -0.13300
C441        C  0.11818760  0.36399135  0.96717488     0.05200
C442        C  0.14666219  0.38180942  0.95000768    -0.09300
C443        C  0.15637921  0.41202696  0.93308499     0.06000
C444        C  0.13724875  0.42229481  0.92922521    -0.13600
Br445      Br  0.08180449  0.42450679  0.02532647    -0.05700
Br446      Br  0.06168312  0.42136717  0.79535550    -0.00100
Br447      Br  0.10518723  0.32654373  0.00107208     0.00400
Br448      Br  0.15035072  0.46263231  0.90362382    -0.04100
Br449      Br  0.04161088  0.44917256  0.98673795     0.00500
Br450      Br  0.08577569  0.38042810  0.83785499    -0.03300
Br451      Br  0.05908356  0.34669549  0.97790856    -0.04200
Br452      Br  0.19526376  0.43977839  0.91256564    -0.00200
C453        C  0.15751267  0.29094843  0.67494234     0.01200
C454        C  0.13503867  0.27368659  0.70569104     0.04000
C455        C  0.11829089  0.24020012  0.70105545    -0.12100
C456        C  0.12440034  0.22372037  0.66633407     0.23300
C457        C  0.14751268  0.24092700  0.63662012    -0.12600
C458        C  0.16400697  0.27444895  0.64086092     0.04700
C459        C  0.10482925  0.18857359  0.65825616     0.27100
C460        C  0.11341971  0.16830474  0.67158675    -0.13300
C461        C  0.09460636  0.13498783  0.66306023     0.05200
C462        C  0.06677344  0.12163715  0.64155934    -0.09300
C463        C  0.05769818  0.14230200  0.63180862     0.06000
C464        C  0.07707975  0.17547742  0.63788834    -0.13600
Br465      Br  0.15570273  0.21862019  0.58841239    -0.05700
Br466      Br  0.12773380  0.29579580  0.75542801    -0.00100
Br467      Br  0.10661321  0.10807936  0.68488389     0.00400
Br468      Br  0.06580475  0.20332911  0.61702196    -0.04100
Br469      Br  0.19433785  0.29745139  0.59783923     0.00500
Br470      Br  0.08587869  0.21698493  0.74068492    -0.03300
Br471      Br  0.15119183  0.18627157  0.70109610    -0.04200
Br472      Br  0.01864912  0.12665311  0.61212854    -0.00200
C473        C  0.39916658  0.46291233  0.65176020     0.01200
C474        C  0.37806850  0.43175713  0.63423347     0.04000
C475        C  0.34951789  0.41720640  0.64866738    -0.12100
C476        C  0.34184083  0.43480271  0.67804789     0.21900
C477        C  0.36326693  0.46558346  0.69694955    -0.12600
C478        C  0.39205132  0.47934825  0.68452667     0.04700
C479        C  0.31098244  0.42230778  0.68456531     0.27100
C480        C  0.29698689  0.43240640  0.65643182    -0.13300
C481        C  0.26704213  0.41832990  0.65870032     0.05200
C482        C  0.25084813  0.39367188  0.68897069    -0.09300
C483        C  0.26534195  0.38490133  0.71899875     0.06000
C484        C  0.29539947  0.39949382  0.71704183    -0.13600
Br485      Br  0.35268152  0.48976796  0.73645604    -0.05700
Br486      Br  0.38747257  0.91079103  0.58471658    -0.00100
Br487      Br  0.24874589  0.43204326  0.61759956     0.00400
Br488      Br  0.31549167  0.38820773  0.75836923    -0.04100
Br489      Br  0.42141900  0.52200377  0.70870459     0.00500
Br490      Br  0.32070562  0.37377046  0.62673041    -0.03300
Br491      Br  0.31838318  0.96563524  0.61344605    -0.04200
Br492      Br  0.24446407  0.35319883  0.76349945    -0.00200
C493        C  0.09074775  0.47298081  0.64038061     0.01200
C494        C  0.07535400  0.43992830  0.64601845     0.04000
C495        C  0.09024367  0.42508855  0.65470795    -0.12100
C496        C  0.12070681  0.44271145  0.65523558     0.23300
C497        C  0.13618013  0.47555358  0.64867528    -0.12600
C498        C  0.12135613  0.49084752  0.64286754     0.04700
C499        C  0.13620144  0.42636103  0.66184165     0.27100
C500        C  0.14085010  0.41991589  0.70716491    -0.13300
C501        C  0.15284362  0.40176020  0.71312576     0.05200
C502        C  0.16118587  0.39091054  0.67386197    -0.09300
C503        C  0.15770740  0.39832392  0.62875034     0.06000
C504        C  0.14550409  0.41623046  0.62276091    -0.13600
Br505      Br  0.17768281  0.49905477  0.64504165    -0.05700
Br506      Br  0.03377631  0.41454869  0.64133839    -0.00100
Br507      Br  0.15779817  0.39148234  0.77488670     0.00400
Br508      Br  0.14332574  0.42843394  0.56133775    -0.04100
Br509      Br  0.14302456  0.03546606  0.63419397     0.00500
Br510      Br  0.06885463  0.38017982  0.66443244    -0.03300
Br511      Br  0.13262199  0.43773980  0.76117253    -0.04200
Br512      Br  0.16992338  0.38396262  0.57522397    -0.00200
C513        C  0.37796569  0.16196378  0.76277139     0.01200
C514        C  0.39644173  0.17035770  0.80275058     0.04000
C515        C  0.41103415  0.15501398  0.80921876    -0.12100
C516        C  0.40769288  0.13155922  0.77542982     0.23300
C517        C  0.39028454  0.12409903  0.73454471    -0.12600
C518        C  0.37533514  0.13912254  0.72825407     0.04700
C519        C  0.42070331  0.11308631  0.78471145     0.27100
C520        C  0.45019867  0.12590191  0.77748670    -0.13300
C521        C  0.46258654  0.10869821  0.78835975     0.05200
C522        C  0.44543017  0.07850633  0.80676770    -0.09300
C523        C  0.41583517  0.06600168  0.81419624     0.06000
C524        C  0.40349470  0.08292435  0.80239626    -0.13600
Br525      Br  0.38634322  0.09236563  0.68827007    -0.05700
Br526      Br  0.40066160  0.20144398  0.85045090    -0.00100
Br527      Br  0.50277219  0.12637204  0.77640201     0.00400
Br528      Br  0.36272846  0.06476526  0.81057566    -0.04100
Br529      Br  0.35150445  0.12861231  0.67213439     0.00500
Br530      Br  0.43464079  0.16502355  0.86551273    -0.03300
Br531      Br  0.47334732  0.16698927  0.75211474    -0.04200
Br532      Br  0.39196960  0.02677966  0.84393180    -0.00200
C533        C  0.36863153  0.25380357  0.75904819     0.01200
C534        C  0.36922289  0.26880397  0.71866671     0.04000
C535        C  0.38310405  0.30219458  0.72080231    -0.12100
C536        C  0.39809263  0.32077060  0.76242363     0.23300
C537        C  0.39720430  0.30550272  0.80274407    -0.12600
C538        C  0.38109639  0.27211639  0.80168997     0.04700
C539        C  0.41677246  0.35616651  0.76325591     0.27100
C540        C  0.44687430  0.37118514  0.76156486    -0.13300
C541        C  0.46517960  0.40447652  0.76929762     0.05200
C542        C  0.45365897  0.42331272  0.77894734    -0.09300
C543        C  0.42339736  0.40852361  0.77109825     0.06000
C544        C  0.40496145  0.37490935  0.76631782    -0.13600
Br545      Br  0.41975470  0.33012917  0.85857523    -0.05700
Br546      Br  0.35173804  0.24367276  0.66033275    -0.00100
Br547      Br  0.00573364  0.42408767  0.75987101     0.00400
Br548      Br  0.36353691  0.35441999  0.76624106    -0.04100
Br549      Br  0.37460121  0.25150812  0.85923194     0.00500
Br550      Br  0.38210530  0.32249381  0.66668322    -0.03300
Br551      Br  0.46302939  0.34578842  0.74978411    -0.04200
Br552      Br  0.40685983  0.43317801  0.76123847    -0.00200
C553        C  0.13231954  0.06242321  0.81216619     0.01200
C554        C  0.15054409  0.09585577  0.82173362     0.04000
C555        C  0.17975695  0.11229652  0.80973415    -0.12100
C556        C  0.19131059  0.09532980  0.79045106     0.23300
C557        C  0.17334251  0.06216318  0.78094183    -0.12600
C558        C  0.14392507  0.04580068  0.79113681     0.04700
C559        C  0.22253047  0.11226160  0.78099787     0.27100
C560        C  0.23294016  0.12813222  0.73963777    -0.13300
C561        C  0.26273439  0.14527989  0.73173501     0.05200
C562        C  0.28219375  0.14645742  0.76506629    -0.09300
C563        C  0.27154731  0.12942579  0.80554321     0.06000
C564        C  0.24178112  0.11232017  0.81339659    -0.13600
Br565      Br  0.18943043  0.03929620  0.75420211    -0.05700
Br566      Br  0.13580375  0.11973344  0.84992555    -0.00100
Br567      Br  0.27675297  0.16651193  0.67469008     0.00400
Br568      Br  0.22731644  0.08897415  0.86868404    -0.04100
Br569      Br  0.12030342  0.00030863  0.77834013     0.00500
Br570      Br  0.20397391  0.15825290  0.81822344    -0.03300
Br571      Br  0.20619835  0.12631669  0.69406693    -0.04200
Br572      Br  0.29769920  0.13079312  0.85179611    -0.00200
C573        C  0.44550681  0.07877075  0.55476804     0.01200
C574        C  0.45963474  0.10433772  0.02524240     0.04000
C575        C  0.44737167  0.12175589  0.01552435    -0.12100
C576        C  0.41995225  0.11214170  0.53169023     0.23300
C577        C  0.40428947  0.08452125  0.55607666    -0.12600
C578        C  0.41723451  0.06838596  0.56876490     0.04700
C579        C  0.40694030  0.13041194  0.52227594     0.27100
C580        C  0.41016603  0.15381146  0.55607385    -0.13300
C581        C  0.39521175  0.16873001  0.54972166     0.05200
C582        C  0.37703439  0.16029204  0.50932855    -0.09300
C583        C  0.37468494  0.13764770  0.97475256     0.06000
C584        C  0.38958595  0.12269100  0.98131470    -0.13600
Br585      Br  0.36431256  0.06788245  0.56919474    -0.05700
Br586      Br  0.49483427  0.11507191  0.99555277    -0.00100
Br587      Br  0.39855366  0.19944115  0.59779841     0.00400
Br588      Br  0.38586153  0.09097272  0.93501138    -0.04100
Br589      Br  0.39414498  0.02953738  0.59949791     0.00500
Br590      Br  0.46776302  0.15861914  0.97943765    -0.03300
Br591      Br  0.43470260  0.16484621  0.61151213    -0.04200
Br592      Br  0.35178860  0.12762370  0.91780237    -0.00200
C593        C  0.46152441  0.42559519  0.55691154     0.01200
C594        C  0.45855932  0.40368228  0.58856633     0.04000
C595        C  0.44317747  0.37101926  0.57484014    -0.12100
C596        C  0.42666287  0.35948093  0.53236689     0.23300
C597        C  0.42722962  0.38098087  0.50249553    -0.12600
C598        C  0.44568050  0.41400594  0.51347534     0.04700
C599        C  0.40870418  0.32473042  0.51949873     0.27100
C600        C  0.42148702  0.30952336  0.49904640    -0.13300
C601        C  0.40536683  0.27612291  0.99105635     0.05200
C602        C  0.37607879  0.25737214  0.50457373    -0.09300
C603        C  0.36298309  0.27339699  0.52286561     0.06000
C604        C  0.37922228  0.30688539  0.52924207    -0.13600
Br605      Br  0.40234709  0.36495791  0.94699961    -0.05700
Br606      Br  0.47156686  0.41765051  0.65288503    -0.00100
Br607      Br  0.42444136  0.25753716  0.96023556     0.00400
Br608      Br  0.36100205  0.32867186  0.55111965    -0.04100
Br609      Br  0.44937185  0.44266290  0.96804710     0.00500
Br610      Br  0.44582951  0.34241797  0.61330939    -0.03300
Br611      Br  0.46148201  0.33508812  0.98208702    -0.04200
Br612      Br  0.32345028  0.25106384  0.54266756    -0.00200
C613        C  0.28411630  0.15193353  0.50212049     0.01200
C614        C  0.26682822  0.15643154  0.97133619     0.04000
C615        C  0.23681573  0.14034349  0.97684642    -0.12100
C616        C  0.22383250  0.12011681  0.51343407     0.23300
C617        C  0.24087715  0.11524935  0.54393009    -0.12600
C618        C  0.27088456  0.13095386  0.53828158     0.04700
C619        C  0.19227691  0.10427473  0.52012988     0.27100
C620        C  0.18142866  0.12175428  0.54049889    -0.13300
C621        C  0.15165553  0.10649841  0.54783041     0.05200
C622        C  0.13278317  0.07325732  0.53778547    -0.09300
C623        C  0.14352207  0.05617657  0.51516876     0.06000
C624        C  0.17304276  0.07181412  0.50559943    -0.13600
Br625      Br  0.22309281  0.08760578  0.59432529    -0.05700
Br626      Br  0.28386910  0.18423277  0.92092193    -0.00100
Br627      Br  0.13656063  0.13166707  0.56855262     0.00400
Br628      Br  0.18736994  0.04862041  0.47329849    -0.04100
Br629      Br  0.29370853  0.12499311  0.58251769     0.00500
Br630      Br  0.21310663  0.14593755  0.93449603    -0.03300
Br631      Br  0.20749935  0.16653866  0.55925455    -0.04200
Br632      Br  0.11881043  0.01091340  0.50017579    -0.00200
C633        C  0.36101624  0.67518698  0.00446392     0.80100
N634        N  0.37510722  0.70733881  0.00517085    -0.78200
C635        C  0.36045353  0.72172432  0.00186769     0.82500
N636        N  0.33110890  0.70316131  0.99941025    -0.78200
C637        C  0.31654163  0.67097174  0.00017700     0.82600
N638        N  0.33166940  0.65700750  0.00221137    -0.79900
C639        C  0.35979070  0.67511544  0.25926354     0.80100
N640        N  0.33055284  0.65546875  0.26050245    -0.78200
C641        C  0.31372181  0.66747984  0.26006876     0.82500
N642        N  0.32626342  0.69934313  0.25835157    -0.78200
C643        C  0.35539724  0.71913088  0.25685867     0.82600
N644        N  0.37217972  0.70703992  0.25787628    -0.79900
C645        C  0.17523130  0.87374950  0.17962779     0.80100
N646        N  0.20446825  0.89070110  0.18497864    -0.78200
C647        C  0.21853172  0.87553654  0.18632893     0.82500
N648        N  0.20302817  0.84322834  0.18281317    -0.78200
C649        C  0.17378787  0.82604694  0.17811067     0.82600
N650        N  0.15988396  0.84140540  0.17590051    -0.79900
C651        C  0.16376955  0.86696332  0.44502112     0.80100
N652        N  0.15010285  0.83478112  0.43765288    -0.78200
C653        C  0.16478781  0.82046831  0.42980596     0.82500
N654        N  0.19409674  0.83922385  0.42898951    -0.78200
C655        C  0.20852463  0.87139906  0.43710758     0.82600
N656        N  0.19329262  0.88518189  0.44516440    -0.79900
C657        C  0.10356673  0.55596324  0.05741514     0.76300
Tb658      Tb  0.48131417  0.52523523  0.09760227     1.80700
O659        O  0.09822681  0.56279158  0.09755723    -0.51700
O660        O  0.07921039  0.01333700  0.14787146    -0.59200
C661        C  0.04818030  0.58675436  0.12750066     0.92100
O662        O  0.45701549  0.55168431  0.11021698    -0.58700
Tb663      Tb  0.04942740  0.52052283  0.09802480     1.78100
O664        O  0.45002596  0.98707142  0.14823022    -0.59200
O665        O  0.00509254  0.97082712  0.08913611    -0.78000
O666        O  0.06000773  0.57257231  0.11155628    -0.77300
O667        O  0.03236687  0.51596806  0.01993194    -0.62600
C668        C  0.48068739  0.96028801  0.06873958     0.91700
O669        O  0.99741279  0.52830946  0.17592962    -0.74500
C670        C  0.42721357  0.48083997  0.13034398     0.75100
C671        C  0.07478682  0.98810769  0.12724502     0.76100
O672        O  0.08155603  0.53208759  0.03637986    -0.59800
O673        O  0.05664223  0.97817532  0.09341193    -0.51700
O674        O  0.99742707  0.52573945  0.02078812    -0.77800
O675        O  0.03333046  0.51993301  0.17545649    -0.61800
C676        C  0.01496693  0.52360041  0.19708547     0.89900
C677        C  0.01462429  0.52041695  0.99891388     0.91100
C678        C  0.45924276  0.56151052  0.07009025     0.75500
O679        O  0.43076748  0.49583778  0.09476837    -0.51100
O680        O  0.47374620  0.55468631  0.04420029    -0.52300
O681        O  0.47195305  0.97803421  0.05935833    -0.65100
O682        O  0.02111869  0.57256996  0.13166358    -0.66300
C683        C  0.10129686  0.54473980  0.32465373     0.76300
Tb684      Tb  0.47748590  0.52165693  0.34912498     1.80700
O685        O  0.09204857  0.54948262  0.36240747    -0.51700
O686        O  0.04027286  0.97520713  0.39973324    -0.59200
C687        C  0.04650408  0.57951779  0.37550935     0.92100
O688        O  0.48221110  0.57104490  0.33876973    -0.58700
Tb689      Tb  0.04244746  0.51009899  0.34615117     1.78100
O690        O  0.43743035  0.01472427  0.38910041    -0.59200
O691        O  0.99737704  0.96523567  0.31775237    -0.78000
O692        O  0.05677996  0.56372542  0.35916224    -0.77300
O693        O  0.02966111  0.51431731  0.26936416    -0.62600
C694        C  0.47287999  0.95682515  0.29978492     0.91700
O695        O  0.99429689  0.52115714  0.42553542    -0.74500
C696        C  0.42412410  0.48520752  0.39460163     0.75100
C697        C  0.05155756  0.96318660  0.37568301     0.76100
O698        O  0.08129424  0.52286150  0.29771720    -0.59800
O699        O  0.05767691  0.97423620  0.33599877    -0.51700
O700        O  0.99569662  0.52581152  0.27181810    -0.77800
O701        O  0.03158694  0.51510715  0.42460195    -0.61800
C702        C  0.01340001  0.51872993  0.44644728     0.89900
C703        C  0.01356610  0.52154850  0.24938585     0.91100
C704        C  0.45776202  0.55958298  0.31900567     0.75500
O705        O  0.43807438  0.47376336  0.37832699    -0.51100
O706        O  0.44406844  0.52976720  0.31247202    -0.52300
O707        O  0.46399347  0.97535491  0.30152671    -0.65100
O708        O  0.01982031  0.56719530  0.38205437    -0.66300
C709        C  0.06648335  0.61438798  0.38609112     0.01200
C710        C  0.07022634  0.62831988  0.43208125     0.04000
C711        C  0.08663747  0.66176649  0.44061416    -0.12100
C712        C  0.10135442  0.68140284  0.40396713     0.23300
C713        C  0.09940226  0.66735894  0.35884562    -0.12600
C714        C  0.08085212  0.63416154  0.34940014     0.04700
C715        C  0.11751874  0.71679596  0.41178807     0.27100
C716        C  0.10439202  0.73269199  0.39878194    -0.13300
C717        C  0.11999426  0.76628499  0.40274364     0.05200
C718        C  0.14878750  0.78464714  0.42257691    -0.09300
C719        C  0.16165378  0.76810463  0.43626746     0.06000
C720        C  0.14616945  0.73450309  0.43008114    -0.13600
Br721      Br  0.12257380  0.69383773  0.31040261    -0.05700
Br722      Br  0.05392890  0.60176077  0.48368660    -0.00100
Br723      Br  0.10149825  0.78591301  0.37721262     0.00400
Br724      Br  0.16408484  0.71218689  0.44643059    -0.04100
Br725      Br  0.07343970  0.61603346  0.28568509     0.00500
Br726      Br  0.08828489  0.68079315  0.50203198    -0.03300
Br727      Br  0.06451074  0.70783310  0.37560141    -0.04200
Br728      Br  0.20008066  0.79005560  0.96521220    -0.00200
C729        C  0.39375147  0.96691302  0.41248744     0.01200
C730        C  0.37395906  0.93396680  0.40002221     0.04000
C731        C  0.34408610  0.91924498  0.40743773    -0.12100
C732        C  0.33356195  0.93694394  0.42816696     0.23300
C733        C  0.35343291  0.96872893  0.44520748    -0.12600
C734        C  0.38372070  0.48311655  0.43964272     0.04700
C735        C  0.30164695  0.92206590  0.43186703     0.27100
C736        C  0.28518663  0.92209147  0.39411995    -0.13300
C737        C  0.25483643  0.90632455  0.39627948     0.05200
C738        C  0.24069765  0.89089880  0.43660392    -0.09300
C739        C  0.25727808  0.89168585  0.47486892     0.06000
C740        C  0.28755568  0.90706439  0.47241152    -0.13600
Br741      Br  0.33990679  0.49241579  0.47772021    -0.05700
Br742      Br  0.38696250  0.90820778  0.37336576    -0.00100
Br743      Br  0.23240716  0.90449648  0.34307926     0.00400
Br744      Br  0.30987350  0.90693364  0.02393259    -0.04100
Br745      Br  0.41012037  0.52538335  0.46782665     0.00500
Br746      Br  0.31712089  0.87473772  0.38827523    -0.03300
Br747      Br  0.30437988  0.94345318  0.33916906    -0.04200
Br748      Br  0.23836947  0.87137067  0.03058307    -0.00200
C749        C  0.05890882  0.94051492  0.39304737     0.01200
C750        C  0.06661780  0.92344235  0.36176718     0.04000
C751        C  0.07854558  0.90717602  0.37910431    -0.12100
C752        C  0.08613750  0.91059964  0.42694894     0.23300
C753        C  0.07544351  0.92404295  0.45863377    -0.12600
C754        C  0.06037905  0.93721881  0.44177226     0.04700
C755        C  0.10731851  0.90240961  0.44142656     0.27100
C756        C  0.09821178  0.87362092  0.46150047    -0.13300
C757        C  0.11753640  0.86372346  0.46696304     0.05200
C758        C  0.14589475  0.88142850  0.44930088    -0.09300
C759        C  0.15542062  0.91145019  0.43182936     0.06000
C760        C  0.13632132  0.92179511  0.42847877    -0.13600
Br761      Br  0.08131890  0.92472749  0.52500522    -0.05700
Br762      Br  0.06100384  0.92093210  0.29500511    -0.00100
Br763      Br  0.10472923  0.82641784  0.50110704     0.00400
Br764      Br  0.14932901  0.96214918  0.40302450    -0.04100
Br765      Br  0.04120815  0.94944400  0.48613391     0.00500
Br766      Br  0.08440527  0.87941185  0.33787999    -0.03300
Br767      Br  0.05854529  0.84660279  0.47879347    -0.04200
Br768      Br  0.19388460  0.93865212  0.40937364    -0.00200
C769        C  0.15734593  0.79087380  0.17470156     0.01200
C770        C  0.13473673  0.77354356  0.20521163     0.04000
C771        C  0.11813750  0.74006279  0.20062413    -0.12100
C772        C  0.12444519  0.72367628  0.16607537     0.23300
C773        C  0.14766517  0.74094795  0.13658578    -0.12600
C774        C  0.16412019  0.77446080  0.14092988     0.04700
C775        C  0.10494733  0.68854900  0.15788987     0.27100
C776        C  0.11350188  0.66830463  0.17150916    -0.13300
C777        C  0.09469894  0.63499005  0.16305330     0.05200
C778        C  0.06698732  0.62164545  0.14116631    -0.09300
C779        C  0.05802163  0.64227553  0.13069853     0.06000
C780        C  0.07731045  0.67544836  0.13705334    -0.13600
Br781      Br  0.15603729  0.71874081  0.08849659    -0.05700
Br782      Br  0.12703932  0.79553010  0.25459282    -0.00100
Br783      Br  0.10651564  0.60803298  0.18532031     0.00400
Br784      Br  0.06607330  0.70329048  0.11597464    -0.04100
Br785      Br  0.19484989  0.79755088  0.09853284     0.00500
Br786      Br  0.08565793  0.71669801  0.24007155    -0.03300
Br787      Br  0.15119826  0.68628827  0.20129841    -0.04200
Br788      Br  0.01928605  0.62648242  0.10914522    -0.00200
C789        C  0.39868303  0.96292781  0.14978292     0.01200
C790        C  0.37756090  0.93190477  0.13173940     0.04000
C791        C  0.34904370  0.91719135  0.14637905    -0.12100
C792        C  0.34138349  0.93458822  0.17624766     0.21900
C793        C  0.36280268  0.96523978  0.19554710    -0.12600
C794        C  0.39158255  0.97912223  0.18305200     0.04700
C795        C  0.31055217  0.92205218  0.18301954     0.27100
C796        C  0.29655547  0.93249785  0.15561995    -0.13300
C797        C  0.26665253  0.91855542  0.15833199     0.05200
C798        C  0.25050383  0.89364787  0.18826055    -0.09300
C799        C  0.26503282  0.88454811  0.21760697     0.06000
C800        C  0.29505235  0.89905447  0.21527121    -0.13600
Br801      Br  0.35218631  0.98904927  0.23586461    -0.05700
Br802      Br  0.38804603  0.41030976  0.08796254    -0.00100
Br803      Br  0.24838193  0.93286572  0.11830989     0.00400
Br804      Br  0.31522725  0.88747210  0.25586946    -0.04100
Br805      Br  0.42087566  0.02169522  0.20766990     0.00500
Br806      Br  0.32031202  0.87373409  0.12439615    -0.03300
Br807      Br  0.31885730  0.46517828  0.11375491    -0.04200
Br808      Br  0.24428711  0.85249407  0.26170363    -0.00200
C809        C  0.09029178  0.97262147  0.13953179     0.01200
C810        C  0.07477981  0.93957972  0.14534474     0.04000
C811        C  0.08955015  0.92467155  0.15446878    -0.12100
C812        C  0.12000557  0.94218191  0.15509395     0.23300
C813        C  0.13559686  0.97497488  0.14816743    -0.12600
C814        C  0.12089567  0.99035959  0.14197520     0.04700
C815        C  0.13538681  0.92572359  0.16170234     0.27100
C816        C  0.14009874  0.91932431  0.20702307    -0.13300
C817        C  0.15230781  0.90138398  0.21294545     0.05200
C818        C  0.16067490  0.89060156  0.17364443    -0.09300
C819        C  0.15702833  0.89786442  0.12853109     0.06000
C820        C  0.14466426  0.91560063  0.12257910    -0.13600
Br821      Br  0.17708970  0.99824369  0.14443381    -0.05700
Br822      Br  0.03322355  0.91423420  0.13990428    -0.00100
Br823      Br  0.15760319  0.89137457  0.27470503     0.00400
Br824      Br  0.14217614  0.92753322  0.06110449    -0.04100
Br825      Br  0.14332860  0.53606508  0.13601676     0.00500
Br826      Br  0.06801473  0.87981168  0.16457550    -0.03300
Br827      Br  0.13156714  0.93680698  0.26108291    -0.04200
Br828      Br  0.16929749  0.88360000  0.07495935    -0.00200
C829        C  0.37785107  0.66178979  0.26305847     0.01200
C830        C  0.39650900  0.67027342  0.30282048     0.04000
C831        C  0.41105671  0.65487142  0.30918929    -0.12100
C832        C  0.40732017  0.63108587  0.27569122     0.23300
C833        C  0.38958254  0.62337087  0.23514580    -0.12600
C834        C  0.37491139  0.63869151  0.22873416     0.04700
C835        C  0.42035771  0.61263676  0.28494689     0.27100
C836        C  0.44971751  0.62523156  0.27680735    -0.13300
C837        C  0.46222189  0.60818409  0.28793013     0.05200
C838        C  0.44528761  0.57830697  0.30731889    -0.09300
C839        C  0.41578832  0.56595235  0.31542670     0.06000
C840        C  0.40336294  0.58279228  0.30362261    -0.13600
Br841      Br  0.38470429  0.59080978  0.18961636    -0.05700
Br842      Br  0.40106611  0.70155732  0.35040772    -0.00100
Br843      Br  0.50222917  0.62558992  0.27490974     0.00400
Br844      Br  0.36277310  0.56497216  0.31312637    -0.04100
Br845      Br  0.35116782  0.62837625  0.17257938     0.00500
Br846      Br  0.43514002  0.66524156  0.36500568    -0.03300
Br847      Br  0.47249499  0.66578618  0.24980812    -0.04200
Br848      Br  0.39216007  0.52699658  0.34586563    -0.00200
C849        C  0.36889357  0.75387411  0.25839348     0.01200
C850        C  0.36894352  0.76862167  0.21803600     0.04000
C851        C  0.38302342  0.80203722  0.21969958    -0.12100
C852        C  0.39861341  0.82085895  0.26083433     0.23300
C853        C  0.39824309  0.80585876  0.30114355    -0.12600
C854        C  0.38208750  0.77249299  0.30058070     0.04700
C855        C  0.41712174  0.85624948  0.26134860     0.27100
C856        C  0.44722533  0.87146388  0.25909993    -0.13300
C857        C  0.46542317  0.90474713  0.26728484     0.05200
C858        C  0.45375590  0.92337433  0.27758875    -0.09300
C859        C  0.42345077  0.90843057  0.27008336     0.06000
C860        C  0.40515572  0.87481785  0.26520892    -0.13600
Br861      Br  0.42138501  0.83084925  0.35638058    -0.05700
Br862      Br  0.35040331  0.74310896  0.16036562    -0.00100
Br863      Br  0.00600573  0.92466637  0.25765118     0.00400
Br864      Br  0.36373474  0.85410019  0.26627390    -0.04100
Br865      Br  0.37642189  0.75236009  0.35833434     0.00500
Br866      Br  0.38142205  0.82201883  0.16561079    -0.03300
Br867      Br  0.46352295  0.84633430  0.24602932    -0.04200
Br868      Br  0.40665981  0.93287725  0.26057419    -0.00200
C869        C  0.13234354  0.56239192  0.31335509     0.01200
C870        C  0.15056559  0.59581146  0.32302707     0.04000
C871        C  0.17982122  0.61225115  0.31128379    -0.12100
C872        C  0.19139353  0.59530654  0.29198397     0.23300
C873        C  0.17343409  0.56214123  0.28242242    -0.12600
C874        C  0.14399707  0.54578161  0.29247936     0.04700
C875        C  0.22259158  0.61229707  0.28233543     0.27100
C876        C  0.23286335  0.62822515  0.24099333    -0.13300
C877        C  0.26263793  0.64547745  0.23289101     0.05200
C878        C  0.28222860  0.64666932  0.26597563    -0.09300
C879        C  0.27170280  0.62956563  0.30643742     0.06000
C880        C  0.24195868  0.61241593  0.31453962    -0.13600
Br881      Br  0.18953467  0.53925213  0.25579549    -0.05700
Br882      Br  0.13576079  0.61968571  0.35094885    -0.00100
Br883      Br  0.27640753  0.66676808  0.17584554     0.00400
Br884      Br  0.22767286  0.58911647  0.36992944    -0.04100
Br885      Br  0.12040604  0.50030784  0.27969380     0.00500
Br886      Br  0.20409259  0.65818557  0.32023833    -0.03300
Br887      Br  0.20593842  0.62633350  0.19571180    -0.04200
Br888      Br  0.29797386  0.63082940  0.35232519    -0.00200
C889        C  0.44559316  0.57845116  0.05533381     0.01200
C890        C  0.45943840  0.60350161  0.52488830     0.04000
C891        C  0.44730237  0.62105152  0.51524091    -0.12100
C892        C  0.42012958  0.61186241  0.03209482     0.23300
C893        C  0.40453612  0.58446379  0.05694296    -0.12600
C894        C  0.41749439  0.56840216  0.06989712     0.04700
C895        C  0.40722711  0.63024439  0.02276683     0.27100
C896        C  0.41059775  0.65371071  0.05657409    -0.13300
C897        C  0.39580972  0.66881694  0.05023103     0.05200
C898        C  0.37755413  0.66038815  0.00994910    -0.09300
C899        C  0.37493863  0.63754369  0.47548689     0.06000
C900        C  0.38974606  0.62248141  0.48197421    -0.13600
Br901      Br  0.36456278  0.56788777  0.07000023    -0.05700
Br902      Br  0.49384764  0.61309689  0.49345908    -0.00100
Br903      Br  0.39942416  0.69971478  0.09821484     0.00400
Br904      Br  0.38558756  0.59041168  0.43596106    -0.04100
Br905      Br  0.39455976  0.53003544  0.10172987     0.00500
Br906      Br  0.46746680  0.65740469  0.47813398    -0.03300
Br907      Br  0.43495180  0.66442193  0.11215017    -0.04200
Br908      Br  0.35170436  0.62727926  0.41886353    -0.00200
C909        C  0.46151495  0.92566554  0.05554194     0.01200
C910        C  0.45849193  0.90372419  0.08717481     0.04000
C911        C  0.44318496  0.87108054  0.07338431    -0.12100
C912        C  0.42689763  0.85958150  0.03070523     0.23300
C913        C  0.42755978  0.88109127  0.00074539    -0.12600
C914        C  0.44585166  0.91411729  0.01194506     0.04700
C915        C  0.40893580  0.82482737  0.01792508     0.27100
C916        C  0.42172202  0.80955224  0.99775410    -0.13300
C917        C  0.40568457  0.77611216  0.49045548     0.05200
C918        C  0.37646633  0.75740937  0.00435478    -0.09300
C919        C  0.36335921  0.77350213  0.02232853     0.06000
C920        C  0.37951280  0.80701035  0.02798845    -0.13600
Br921      Br  0.40302051  0.86505789  0.44484239    -0.05700
Br922      Br  0.47132040  0.91764567  0.15152965    -0.00100
Br923      Br  0.42480298  0.75741524  0.46015510     0.00400
Br924      Br  0.36129631  0.82889463  0.04941081    -0.04100
Br925      Br  0.44955676  0.94284359  0.46665583     0.00500
Br926      Br  0.44551869  0.84239923  0.11214054    -0.03300
Br927      Br  0.46162885  0.83508937  0.48033552    -0.04200
Br928      Br  0.32396973  0.75128652  0.04277833    -0.00200
C929        C  0.28463314  0.65194940  0.00379672     0.01200
C930        C  0.26714759  0.65614261  0.47300850     0.04000
C931        C  0.23715412  0.63993137  0.47876870    -0.12100
C932        C  0.22439728  0.61996364  0.01569554     0.23300
C933        C  0.24164286  0.61542012  0.04624014    -0.12600
C934        C  0.27162633  0.63118315  0.04026284     0.04700
C935        C  0.19284970  0.60402628  0.02256052     0.27100
C936        C  0.18191946  0.62154612  0.04242766    -0.13300
C937        C  0.15209965  0.60632747  0.04930701     0.05200
C938        C  0.13321962  0.57307734  0.03925784    -0.09300
C939        C  0.14406257  0.55596519  0.01706249     0.06000
C940        C  0.17366857  0.57154986  0.00809261    -0.13600
Br941      Br  0.22417145  0.58811103  0.09707665    -0.05700
Br942      Br  0.28388070  0.68367086  0.42223098    -0.00100
Br943      Br  0.13696855  0.63161093  0.06915403     0.00400
Br944      Br  0.18818757  0.54831137  0.97652581    -0.04100
Br945      Br  0.29472953  0.62556354  0.08439191     0.00500
Br946      Br  0.21313576  0.64493894  0.43622169    -0.03300
Br947      Br  0.20794159  0.66639157  0.06088183    -0.04200
Br948      Br  0.11933076  0.51077068  0.00150560    -0.00200
C949        C  0.36101711  0.67518678  0.50446457     0.80100
N950        N  0.37510800  0.70733856  0.50517065    -0.78200
C951        C  0.36045425  0.72172401  0.50186804     0.82500
N952        N  0.33110962  0.70316095  0.49941193    -0.78200
C953        C  0.31654238  0.67097145  0.50017958     0.82600
N954        N  0.33167024  0.65700723  0.50221349    -0.79900
C955        C  0.35978968  0.67511437  0.75925778     0.80100
N956        N  0.33055181  0.65546792  0.76049679    -0.78200
C957        C  0.31372093  0.66747915  0.76006287     0.82500
N958        N  0.32626265  0.69934239  0.75834544    -0.78200
C959        C  0.35539644  0.71913000  0.75685229     0.82600
N960        N  0.37217888  0.70703891  0.75787019    -0.79900
C961        C  0.17523201  0.87374729  0.67962572     0.80100
N962        N  0.20446889  0.89069831  0.68497718    -0.78200
C963        C  0.21853190  0.87553321  0.68632733     0.82500
N964        N  0.20302790  0.84322496  0.68281098    -0.78200
C965        C  0.17378760  0.82604413  0.67810816     0.82600
N966        N  0.15988420  0.84140316  0.67589799    -0.79900
C967        C  0.16377015  0.86696268  0.94502722     0.80100
N968        N  0.15010355  0.83478054  0.93765798    -0.78200
C969        C  0.16478876  0.82046799  0.92981106     0.82500
N970        N  0.19409768  0.83922363  0.92899536    -0.78200
C971        C  0.20852542  0.87139868  0.93711464     0.82600
N972        N  0.19329325  0.88518131  0.94517159    -0.79900
C973        C  0.10356665  0.55596278  0.55741666     0.76300
Tb974      Tb  0.48131370  0.52523385  0.59760368     1.80700
O975        O  0.09822604  0.56279136  0.59755800    -0.51700
O976        O  0.07921263  0.01333620  0.64786827    -0.59200
C977        C  0.04817850  0.58675180  0.62750320     0.92100
O978        O  0.45701274  0.55168042  0.61021558    -0.58700
Tb979      Tb  0.04942687  0.52052206  0.59802469     1.78100
O980        O  0.45002608  0.98706517  0.64822523    -0.59200
O981        O  0.00509174  0.97082602  0.58914032    -0.78000
O982        O  0.06000601  0.57257135  0.61155203    -0.77300
O983        O  0.03236608  0.51596688  0.51993167    -0.62600
C984        C  0.48068734  0.96028742  0.56873930     0.91700
O985        O  0.99741281  0.52830894  0.67593097    -0.74500
C986        C  0.42721323  0.48083761  0.63034554     0.75100
C987        C  0.07478683  0.98810536  0.62724391     0.76100
O988        O  0.08155635  0.53208677  0.53638111    -0.59800
O989        O  0.05663997  0.97817171  0.59341394    -0.51700
O990        O  0.99742568  0.52573738  0.52078864    -0.77800
O991        O  0.03333021  0.51993201  0.67545688    -0.61800
C992        C  0.01496692  0.52359963  0.69708633     0.89900
C993        C  0.01462316  0.52041540  0.49891389     0.91100
C994        C  0.45924331  0.56150992  0.57009050     0.75500
O995        O  0.43076732  0.49584176  0.59477740    -0.51100
O996        O  0.47374970  0.55468869  0.54420287    -0.52300
O997        O  0.47195427  0.97803417  0.55935418    -0.65100
O998        O  0.02111724  0.57256593  0.63167199    -0.66300
C999        C  0.10129687  0.54473888  0.82465406     0.76300
Tb1000     Tb  0.47748628  0.52165715  0.84912505     1.80700
O1001       O  0.09204871  0.54948206  0.86240766    -0.51700
O1002       O  0.04026826  0.97520224  0.89973146    -0.59200
C1003       C  0.04650514  0.57951833  0.87550947     0.92100
O1004       O  0.48220999  0.57104428  0.83876872    -0.58700
Tb1005     Tb  0.04244759  0.51009847  0.84615207     1.78100
O1006       O  0.43743020  0.01472474  0.88910193    -0.59200
O1007       O  0.99737314  0.96523382  0.81775592    -0.78000
O1008       O  0.05678085  0.56372511  0.85916535    -0.77300
O1009       O  0.02966124  0.51431661  0.76936498    -0.62600
C1010       C  0.47287713  0.95682436  0.79978651     0.91700
O1011       O  0.99429825  0.52115863  0.92553541    -0.74500
C1012       C  0.42412506  0.48520812  0.89460332     0.75100
C1013       C  0.05155716  0.96318576  0.87568343     0.76100
O1014       O  0.08129415  0.52286038  0.79771785    -0.59800
O1015       O  0.05767906  0.97423817  0.83600130    -0.51700
O1016       O  0.99569712  0.52581141  0.77181882    -0.77800
O1017       O  0.03158769  0.51510757  0.92460251    -0.61800
C1018       C  0.01340114  0.51873115  0.94644746     0.89900
C1019       C  0.01356637  0.52154798  0.74938665     0.91100
C1020       C  0.45776076  0.55958150  0.81900462     0.75500
O1021       O  0.43807503  0.47376375  0.87832793    -0.51100
O1022       O  0.44406783  0.52976574  0.81247159    -0.52300
O1023       O  0.46399198  0.97535536  0.80152497    -0.65100
O1024       O  0.01982118  0.56719694  0.88205124    -0.66300
C1025       C  0.06648499  0.61438840  0.88609139     0.01200
C1026       C  0.07022839  0.62832033  0.93208160     0.04000
C1027       C  0.08664018  0.66176693  0.94061458    -0.12100
C1028       C  0.10135730  0.68140313  0.90396751     0.23300
C1029       C  0.09940503  0.66735915  0.85884608    -0.12600
C1030       C  0.08085398  0.63416188  0.84940044     0.04700
C1031       C  0.11752140  0.71679618  0.91178828     0.27100
C1032       C  0.10439462  0.73269201  0.89878133    -0.13300
C1033       C  0.11999633  0.76628496  0.90274476     0.05200
C1034       C  0.14878890  0.78464704  0.92258062    -0.09300
C1035       C  0.16165520  0.76810474  0.93627193     0.06000
C1036       C  0.14617165  0.73450338  0.93008337    -0.13600
Br1037     Br  0.12257797  0.69383757  0.81040374    -0.05700
Br1038     Br  0.05393007  0.60176136  0.98368685    -0.00100
Br1039     Br  0.10150067  0.78591316  0.87721312     0.00400
Br1040     Br  0.16408755  0.71218762  0.94643225    -0.04100
Br1041     Br  0.07344026  0.61603403  0.78568522     0.00500
Br1042     Br  0.08828847  0.68079385  0.00203261    -0.03300
Br1043     Br  0.06451402  0.70783299  0.87559737    -0.04200
Br1044     Br  0.20008051  0.79005545  0.46520277    -0.00200
C1045       C  0.39375187  0.96691340  0.91249038     0.01200
C1046       C  0.37395981  0.93396693  0.90002636     0.04000
C1047       C  0.34408693  0.91924460  0.90744291    -0.12100
C1048       C  0.33356248  0.93694338  0.92817154     0.23300
C1049       C  0.35343313  0.96872857  0.94521137    -0.12600
C1050       C  0.38372184  0.48311759  0.93964451     0.04700
C1051       C  0.30164749  0.92206497  0.93187187     0.27100
C1052       C  0.28518687  0.92209015  0.89412494    -0.13300
C1053       C  0.25483670  0.90632309  0.89628503     0.05200
C1054       C  0.24069838  0.89089848  0.93661042    -0.09300
C1055       C  0.25727914  0.89168595  0.97487524     0.06000
C1056       C  0.28755658  0.90706371  0.97241665    -0.13600
Br1057     Br  0.33990813  0.49241729  0.97772160    -0.05700
Br1058     Br  0.38696347  0.90820827  0.87336948    -0.00100
Br1059     Br  0.23240676  0.90449279  0.84308405     0.00400
Br1060     Br  0.30987232  0.90693562  0.52392926    -0.04100
Br1061     Br  0.41012144  0.52538478  0.96782683     0.00500
Br1062     Br  0.31712229  0.87473672  0.88828336    -0.03300
Br1063     Br  0.30437962  0.94345133  0.83917342    -0.04200
Br1064     Br  0.23836769  0.87136895  0.53057550    -0.00200
C1065       C  0.05891008  0.94051550  0.89304804     0.01200
C1066       C  0.06662011  0.92344404  0.86176767     0.04000
C1067       C  0.07854900  0.90717871  0.87910446    -0.12100
C1068       C  0.08613959  0.91060087  0.92694950     0.23300
C1069       C  0.07544462  0.92404310  0.95863432    -0.12600
C1070       C  0.06038068  0.93721964  0.94177295     0.04700
C1071       C  0.10731984  0.90240991  0.94142825     0.27100
C1072       C  0.09821202  0.87362048  0.96150080    -0.13300
C1073       C  0.11753621  0.86372257  0.96696503     0.05200
C1074       C  0.14589535  0.88142795  0.94930577    -0.09300
C1075       C  0.15542218  0.91145025  0.93183554     0.06000
C1076       C  0.13632324  0.92179557  0.92848339    -0.13600
Br1077     Br  0.08131756  0.92472454  0.02500583    -0.05700
Br1078     Br  0.06100511  0.92093338  0.79500564    -0.00100
Br1079     Br  0.10472712  0.82641557  0.00110671     0.00400
Br1080     Br  0.14933240  0.96215043  0.90303070    -0.04100
Br1081     Br  0.04121199  0.94944743  0.98613525     0.00500
Br1082     Br  0.08441156  0.87941734  0.83787898    -0.03300
Br1083     Br  0.05854455  0.84660173  0.97878883    -0.04200
Br1084     Br  0.19388711  0.93865260  0.90938339    -0.00200
C1085       C  0.15734503  0.79087096  0.67469950     0.01200
C1086       C  0.13473678  0.77354145  0.70521144     0.04000
C1087       C  0.11813726  0.74006066  0.70062519    -0.12100
C1088       C  0.12444327  0.72367341  0.66607501     0.23300
C1089       C  0.14766192  0.74094435  0.63658280    -0.12600
C1090       C  0.16411772  0.77445722  0.64092649     0.04700
C1091       C  0.10494509  0.68854607  0.65789130     0.27100
C1092       C  0.11350027  0.66830193  0.67150908    -0.13300
C1093       C  0.09469718  0.63498733  0.66305435     0.05200
C1094       C  0.06698498  0.62164259  0.64116989    -0.09300
C1095       C  0.05801838  0.64227223  0.63070506     0.06000
C1096       C  0.07730724  0.67544508  0.63705836    -0.13600
Br1097     Br  0.15603094  0.71873615  0.58849058    -0.05700
Br1098     Br  0.12704100  0.79552907  0.75459326    -0.00100
Br1099     Br  0.10651396  0.60803011  0.68532026     0.00400
Br1100     Br  0.06606876  0.70328657  0.61598226    -0.04100
Br1101     Br  0.19484647  0.79754643  0.59852755     0.00500
Br1102     Br  0.08565964  0.71669679  0.74007657    -0.03300
Br1103     Br  0.15119763  0.68628576  0.70129451    -0.04200
Br1104     Br  0.01928143  0.62647832  0.60915906    -0.00200
C1105       C  0.39868356  0.96292431  0.64978396     0.01200
C1106       C  0.37756146  0.93190123  0.63174084     0.04000
C1107       C  0.34904412  0.91718806  0.64637981    -0.12100
C1108       C  0.34138396  0.93458487  0.67624879     0.21900
C1109       C  0.36280326  0.96523642  0.69554822    -0.12600
C1110       C  0.39158308  0.97911886  0.68305275     0.04700
C1111       C  0.31055259  0.92204893  0.68302053     0.27100
C1112       C  0.29655621  0.93249524  0.65562150    -0.13300
C1113       C  0.26665318  0.91855248  0.65833236     0.05200
C1114       C  0.25050402  0.89364420  0.68825960    -0.09300
C1115       C  0.26503265  0.88454395  0.71760590     0.06000
C1116       C  0.29505227  0.89905046  0.71527107    -0.13600
Br1117     Br  0.35218704  0.98904620  0.73586546    -0.05700
Br1118     Br  0.38804866  0.41030623  0.58796854    -0.00100
Br1119     Br  0.24838312  0.93286345  0.61831034     0.00400
Br1120     Br  0.31522660  0.88746751  0.75586946    -0.04100
Br1121     Br  0.42087631  0.02169194  0.70766999     0.00500
Br1122     Br  0.32031199  0.87373164  0.62439395    -0.03300
Br1123     Br  0.31885887  0.46517184  0.61375103    -0.04200
Br1124     Br  0.24428634  0.85248924  0.76170144    -0.00200
C1125       C  0.09029189  0.97261895  0.63952945     0.01200
C1126       C  0.07477981  0.93957788  0.64534785     0.04000
C1127       C  0.08955018  0.92466947  0.65447043    -0.12100
C1128       C  0.12000554  0.94217901  0.65509058     0.23300
C1129       C  0.13559682  0.97497140  0.64816009    -0.12600
C1130       C  0.12089578  0.99035622  0.64196736     0.04700
C1131       C  0.13538684  0.92572072  0.66169909     0.27100
C1132       C  0.14010081  0.91932382  0.70702023    -0.13300
C1133       C  0.15231029  0.90138390  0.71294311     0.05200
C1134       C  0.16067615  0.89059996  0.67364214    -0.09300
C1135       C  0.15702881  0.89786180  0.62852849     0.06000
C1136       C  0.14466367  0.91559689  0.62257595    -0.13600
Br1137     Br  0.17708950  0.99823940  0.64442337    -0.05700
Br1138     Br  0.03322325  0.91423393  0.63991880    -0.00100
Br1139     Br  0.15760856  0.89137779  0.77470337     0.00400
Br1140     Br  0.14217352  0.92752711  0.56110062    -0.04100
Br1141     Br  0.14332887  0.53606637  0.63602131     0.00500
Br1142     Br  0.06801482  0.87981044  0.66458277    -0.03300
Br1143     Br  0.13157210  0.93681000  0.76107957    -0.04200
Br1144     Br  0.16929961  0.88359881  0.57495725    -0.00200
C1145       C  0.37784964  0.66178813  0.76305326     0.01200
C1146       C  0.39650870  0.67027291  0.80281415     0.04000
C1147       C  0.41105506  0.65486956  0.80918456    -0.12100
C1148       C  0.40731651  0.63108188  0.77568881     0.23300
C1149       C  0.38957750  0.62336537  0.73514470    -0.12600
C1150       C  0.37490754  0.63868718  0.72873163     0.04700
C1151       C  0.42035445  0.61263317  0.78494485     0.27100
C1152       C  0.44971400  0.62522779  0.77680309    -0.13300
C1153       C  0.46221896  0.60818094  0.78792602     0.05200
C1154       C  0.44528556  0.57830459  0.80731715    -0.09300
C1155       C  0.41578640  0.56594982  0.81542636     0.06000
C1156       C  0.40336042  0.58278919  0.80362233    -0.13600
Br1157     Br  0.38469543  0.59080043  0.68961925    -0.05700
Br1158     Br  0.40106950  0.70156056  0.85039781    -0.00100
Br1159     Br  0.50222564  0.62558613  0.77490180     0.00400
Br1160     Br  0.36277073  0.56496874  0.81312800    -0.04100
Br1161     Br  0.35116251  0.62837000  0.67257809     0.00500
Br1162     Br  0.43513895  0.66524052  0.86500051    -0.03300
Br1163     Br  0.47249027  0.66578116  0.74980004    -0.04200
Br1164     Br  0.39215903  0.52699433  0.84586621    -0.00200
C1165       C  0.36889255  0.75387323  0.75838776     0.01200
C1166       C  0.36894152  0.76862097  0.71803111     0.04000
C1167       C  0.38302011  0.80203642  0.71969584    -0.12100
C1168       C  0.39860975  0.82085793  0.76083102     0.23300
C1169       C  0.39823919  0.80585745  0.80114001    -0.12600
C1170       C  0.38208524  0.77249166  0.80057575     0.04700
C1171       C  0.41711811  0.85624855  0.76134635     0.27100
C1172       C  0.44722179  0.87146292  0.75909932    -0.13300
C1173       C  0.46541977  0.90474602  0.76728664     0.05200
C1174       C  0.45375261  0.92337336  0.77759070    -0.09300
C1175       C  0.42344744  0.90842975  0.77008507     0.06000
C1176       C  0.40515228  0.87481700  0.76520878    -0.13600
Br1177     Br  0.42137756  0.83084801  0.85637965    -0.05700
Br1178     Br  0.35040113  0.74310850  0.66036060    -0.00100
Br1179     Br  0.00600270  0.92466457  0.75765808     0.00400
Br1180     Br  0.36373131  0.85409908  0.76627559    -0.04100
Br1181     Br  0.37641971  0.75235797  0.85832862     0.00500
Br1182     Br  0.38141614  0.82201796  0.66560890    -0.03300
Br1183     Br  0.46351944  0.84633336  0.74602883    -0.04200
Br1184     Br  0.40665622  0.93287655  0.76057947    -0.00200
C1185       C  0.13234351  0.56239092  0.81335529     0.01200
C1186       C  0.15056553  0.59581050  0.82302702     0.04000
C1187       C  0.17982088  0.61225031  0.81128218    -0.12100
C1188       C  0.19139338  0.59530564  0.79198351     0.23300
C1189       C  0.17343429  0.56214009  0.78242407    -0.12600
C1190       C  0.14399710  0.54578056  0.79247992     0.04700
C1191       C  0.22259124  0.61229643  0.78233371     0.27100
C1192       C  0.23286218  0.62822427  0.74099123    -0.13300
C1193       C  0.26263662  0.64547706  0.73288784     0.05200
C1194       C  0.28222790  0.64666902  0.76597127    -0.09300
C1195       C  0.27170297  0.62956598  0.80643378     0.06000
C1196       C  0.24195908  0.61241629  0.81453742    -0.13600
Br1197     Br  0.18953561  0.53925048  0.75580227    -0.05700
Br1198     Br  0.13576130  0.61968467  0.85095131    -0.00100
Br1199     Br  0.27640522  0.66676893  0.67584312     0.00400
Br1200     Br  0.22767468  0.58911852  0.86992889    -0.04100
Br1201     Br  0.12040581  0.50030692  0.77969245     0.00500
Br1202     Br  0.20409148  0.65818497  0.82023277    -0.03300
Br1203     Br  0.20593630  0.62633194  0.69571094    -0.04200
Br1204     Br  0.29797502  0.63083113  0.85232101    -0.00200
C1205       C  0.44559428  0.57845117  0.55533373     0.01200
C1206       C  0.45943609  0.60350031  0.02488614     0.04000
C1207       C  0.44729949  0.62104958  0.01523841    -0.12100
C1208       C  0.42013194  0.61186389  0.53209530     0.23300
C1209       C  0.40453772  0.58446471  0.55694205    -0.12600
C1210       C  0.41749531  0.56840233  0.56989602     0.04700
C1211       C  0.40722971  0.63024607  0.52276688     0.27100
C1212       C  0.41059948  0.65371167  0.55657467    -0.13300
C1213       C  0.39581084  0.66881724  0.55023177     0.05200
C1214       C  0.37755532  0.66038831  0.50994969    -0.09300
C1215       C  0.37493653  0.63754276  0.97548684     0.06000
C1216       C  0.38974301  0.62247949  0.98197465    -0.13600
Br1217     Br  0.36456440  0.56788934  0.56999850    -0.05700
Br1218     Br  0.49384379  0.61309370  0.99345332    -0.00100
Br1219     Br  0.39942433  0.69971433  0.59821602     0.00400
Br1220     Br  0.38558246  0.59040801  0.93596294    -0.04100
Br1221     Br  0.39455961  0.53003550  0.60172841     0.00500
Br1222     Br  0.46746220  0.65740082  0.97812752    -0.03300
Br1223     Br  0.43495311  0.66442272  0.61215123    -0.04200
Br1224     Br  0.35170266  0.62727897  0.91886317    -0.00200
C1225       C  0.46151490  0.92566504  0.55554188     0.01200
C1226       C  0.45849014  0.90372367  0.58717632     0.04000
C1227       C  0.44318294  0.87107995  0.57338623    -0.12100
C1228       C  0.42689740  0.85958111  0.53070540     0.23300
C1229       C  0.42756144  0.88109100  0.50074366    -0.12600
C1230       C  0.44585360  0.91411693  0.51194326     0.04700
C1231       C  0.40893598  0.82482708  0.51792487     0.27100
C1232       C  0.42172292  0.80955215  0.49775619    -0.13300
C1233       C  0.40568351  0.77611223  0.99045375     0.05200
C1234       C  0.37646700  0.75740909  0.50435484    -0.09300
C1235       C  0.36335938  0.77350176  0.52232674     0.06000
C1236       C  0.37951266  0.80700996  0.52798586    -0.13600
Br1237     Br  0.40301651  0.86505768  0.94484684    -0.05700
Br1238     Br  0.47131773  0.91764539  0.65153169    -0.00100
Br1239     Br  0.42480097  0.75741478  0.96015153     0.00400
Br1240     Br  0.36129524  0.82889408  0.54940347    -0.04100
Br1241     Br  0.44955116  0.94284402  0.96666082     0.00500
Br1242     Br  0.44551411  0.84239826  0.61214530    -0.03300
Br1243     Br  0.46162721  0.83508915  0.98032973    -0.04200
Br1244     Br  0.32396968  0.75128627  0.54277557    -0.00200
C1245       C  0.28463394  0.65194931  0.50380093     0.01200
C1246       C  0.26714735  0.65614324  0.97300388     0.04000
C1247       C  0.23715378  0.63993193  0.97876287    -0.12100
C1248       C  0.22439826  0.61996396  0.51570250     0.23300
C1249       C  0.24164437  0.61542093  0.54624669    -0.12600
C1250       C  0.27162774  0.63118383  0.54026807     0.04700
C1251       C  0.19285058  0.60402613  0.52256773     0.27100
C1252       C  0.18191962  0.62154594  0.54243226    -0.13300
C1253       C  0.15209953  0.60632712  0.54930939     0.05200
C1254       C  0.13321989  0.57307692  0.53926077    -0.09300
C1255       C  0.14406356  0.55596476  0.51706804     0.06000
C1256       C  0.17366988  0.57154948  0.50810054    -0.13600
Br1257     Br  0.22417378  0.58811203  0.59708360    -0.05700
Br1258     Br  0.28388140  0.68367242  0.92222754    -0.00100
Br1259     Br  0.13696736  0.63161030  0.56915187     0.00400
Br1260     Br  0.18818987  0.54831076  0.47653770    -0.04100
Br1261     Br  0.29473173  0.62556500  0.58439650     0.00500
Br1262     Br  0.21313630  0.64494129  0.93621656    -0.03300
Br1263     Br  0.20794099  0.66639160  0.56088567    -0.04200
Br1264     Br  0.11933201  0.51077027  0.50151088    -0.00200
C1265       C  0.86050112  0.17508793  0.00367924     0.80100
N1266       N  0.87461234  0.20724937  0.00477411    -0.78200
C1267       C  0.86001096  0.22168583  0.00147457     0.82500
N1268       N  0.83067123  0.20315487  0.99858590    -0.78200
C1269       C  0.81605877  0.17093593  0.99892337     0.82600
N1270       N  0.83115009  0.15692168  0.00100063    -0.79900
C1271       C  0.85982313  0.17517152  0.25891873     0.80100
N1272       N  0.83058268  0.15541372  0.25987927    -0.78200
C1273       C  0.81368895  0.16734625  0.25950997     0.82500
N1274       N  0.82615119  0.19921311  0.25822609    -0.78200
C1275       C  0.85527611  0.21910050  0.25705937     0.82600
N1276       N  0.87213731  0.20710902  0.25794351    -0.79900
C1277       C  0.67564656  0.37394034  0.17991834     0.80100
N1278       N  0.70487507  0.39081036  0.18540252    -0.78200
C1279       C  0.71887265  0.37557339  0.18684609     0.82500
N1280       N  0.70331438  0.34325082  0.18325704    -0.78200
C1281       C  0.67406781  0.32614430  0.17840102     0.82600
N1282       N  0.66023798  0.34158932  0.17614064    -0.79900
C1283       C  0.66440798  0.36721025  0.44549598     0.80100
N1284       N  0.65061262  0.33503660  0.43774451    -0.78200
C1285       C  0.66516273  0.32059264  0.42968381     0.82500
N1286       N  0.69448488  0.33922144  0.42905943    -0.78200
C1287       C  0.70903458  0.37138630  0.43752806     0.82600
N1288       N  0.69392635  0.38529017  0.44577397    -0.79900
C1289       C  0.60325962  0.05609552  0.05632988     0.76300
Tb1290     Tb  0.98107864  0.02527897  0.09651461     1.80700
O1291       O  0.59817210  0.06257417  0.09689877    -0.51700
O1292       O  0.57929084  0.51340911  0.14887916    -0.59200
C1293       C  0.54799386  0.08676541  0.12743768     0.92100
O1294       O  0.95661667  0.05153703  0.10923333    -0.58700
Tb1295     Tb  0.54929146  0.02054227  0.09731799     1.78100
O1296       O  0.95032841  0.48592382  0.14820034    -0.59200
O1297       O  0.50520523  0.47078346  0.09024487    -0.78000
O1298       O  0.55991567  0.07251038  0.11230604    -0.77300
O1299       O  0.53245505  0.01628017  0.01915913    -0.62600
C1300       C  0.98078133  0.46023471  0.06990182     0.91700
O1301       O  0.49698516  0.02796685  0.17489564    -0.74500
C1302       C  0.92687740  0.98088531  0.12884700     0.75100
C1303       C  0.57510211  0.48831783  0.12810666     0.76100
O1304       O  0.58110936  0.03251556  0.03511987    -0.59800
O1305       O  0.55706978  0.47838221  0.09409123    -0.51700
O1306       O  0.49723084  0.02559972  0.01981701    -0.77800
O1307       O  0.53308295  0.01989171  0.17463488    -0.61800
C1308       C  0.51461542  0.02341639  0.19616341     0.89900
C1309       C  0.51459225  0.02049918  0.99804786     0.91100
C1310       C  0.95912834  0.06176141  0.06935339     0.75500
O1311       O  0.93047853  0.99482467  0.09205006    -0.51100
O1312       O  0.97386227  0.05524539  0.04353733    -0.52300
O1313       O  0.97211073  0.47801052  0.06035227    -0.65100
O1314       O  0.52085944  0.07269461  0.13032201    -0.66300
C1315       C  0.60130128  0.04478729  0.32360889     0.76300
Tb1316     Tb  0.97727837  0.02154589  0.34840740     1.80700
O1317       O  0.59210874  0.04952406  0.36142958    -0.51700
O1318       O  0.54096587  0.47547151  0.40078116    -0.59200
C1319       C  0.54630798  0.07956110  0.37450148     0.92100
O1320       O  0.98214451  0.07101523  0.33843275    -0.58700
Tb1321     Tb  0.54245675  0.01027505  0.34520851     1.78100
O1322       O  0.93760538  0.51461141  0.38986932    -0.59200
O1323       O  0.49716838  0.46498490  0.31955657    -0.78000
O1324       O  0.55665404  0.06390793  0.35782616    -0.77300
O1325       O  0.52950777  0.01442478  0.26849060    -0.62600
C1326       C  0.97290254  0.45682560  0.30088351     0.91700
O1327       O  0.49412332  0.02094633  0.42468947    -0.74500
C1328       C  0.92380300  0.98530706  0.39376283     0.75100
C1329       C  0.55195732  0.46326749  0.37636794     0.76100
O1330       O  0.58125584  0.02295136  0.29669721    -0.59800
O1331       O  0.55757910  0.47401060  0.33646510    -0.51700
O1332       O  0.49530032  0.02555446  0.27094339    -0.77800
O1333       O  0.53174165  0.01545931  0.42372936    -0.61800
C1334       C  0.51339487  0.01880182  0.44558515     0.89900
C1335       C  0.51324425  0.02142341  0.24849346     0.91100
C1336       C  0.95781043  0.05967967  0.31832795     0.75500
O1337       O  0.93767635  0.97375903  0.37754110    -0.51100
O1338       O  0.94412023  0.02988364  0.31138834    -0.52300
O1339       O  0.96434513  0.47565331  0.30176871    -0.65100
O1340       O  0.51963423  0.06705324  0.38139882    -0.66300
C1341       C  0.56617605  0.11445632  0.38526564     0.01200
C1342       C  0.56965656  0.12826486  0.43128123     0.04000
C1343       C  0.58594738  0.16169938  0.44002427    -0.12100
C1344       C  0.60087498  0.18146660  0.40361167     0.23300
C1345       C  0.59919076  0.16756515  0.35849440    -0.12600
C1346       C  0.58069500  0.13437977  0.34878031     0.04700
C1347       C  0.61719167  0.21686035  0.41170632     0.27100
C1348       C  0.60425638  0.23299031  0.39888163    -0.13300
C1349       C  0.62011502  0.26660000  0.40269115     0.05200
C1350       C  0.64898100  0.28475724  0.42224773    -0.09300
C1351       C  0.66167581  0.26797967  0.43565869     0.06000
C1352       C  0.64589517  0.23435228  0.42973681    -0.13600
Br1353     Br  0.62276458  0.19421295  0.31048786    -0.05700
Br1354     Br  0.55325163  0.10155608  0.48269316    -0.00100
Br1355     Br  0.60189190  0.28652789  0.37716355     0.00400
Br1356     Br  0.66344970  0.21168082  0.44619037    -0.04100
Br1357     Br  0.57352670  0.11651245  0.28495541     0.00500
Br1358     Br  0.58722908  0.18052567  0.50143639    -0.03300
Br1359     Br  0.56427723  0.20843624  0.37623352    -0.04200
Br1360     Br  0.70033956  0.28962747  0.96357498    -0.00200
C1361       C  0.89415185  0.46673674  0.41355871     0.01200
C1362       C  0.87440555  0.43375729  0.40128948     0.04000
C1363       C  0.84457898  0.41894438  0.40919127    -0.12100
C1364       C  0.83404096  0.43669380  0.42966066     0.23300
C1365       C  0.85387680  0.46851785  0.44649192    -0.12600
C1366       C  0.88329855  0.98333244  0.43843016     0.04700
C1367       C  0.80214618  0.42186958  0.43315883     0.27100
C1368       C  0.78590622  0.42250195  0.39562616    -0.13300
C1369       C  0.75555383  0.40678112  0.39751414     0.05200
C1370       C  0.74120584  0.39075635  0.43733652    -0.09300
C1371       C  0.75758307  0.39097962  0.47543486     0.06000
C1372       C  0.78786786  0.40637684  0.47328274    -0.13600
Br1373     Br  0.83947257  0.99261483  0.47650437    -0.05700
Br1374     Br  0.88737901  0.40812811  0.37400642    -0.00100
Br1375     Br  0.73342107  0.40587277  0.34460559     0.00400
Br1376     Br  0.80996231  0.40573847  0.02470418    -0.04100
Br1377     Br  0.90969514  0.02568495  0.46646154     0.00500
Br1378     Br  0.81770996  0.37421821  0.39128786    -0.03300
Br1379     Br  0.80541129  0.44468929  0.34137697    -0.04200
Br1380     Br  0.73841347  0.36994691  0.03054423    -0.00200
C1381       C  0.55952451  0.44073309  0.39353968     0.01200
C1382       C  0.56741125  0.42389293  0.36211235     0.04000
C1383       C  0.57955737  0.40781101  0.37929624    -0.12100
C1384       C  0.58704670  0.41107627  0.42715481     0.23300
C1385       C  0.57614780  0.42422100  0.45895601    -0.12600
C1386       C  0.56099046  0.43731910  0.44223023     0.04700
C1387       C  0.60815170  0.40280612  0.44166642     0.27100
C1388       C  0.59890653  0.37390905  0.46149038    -0.13300
C1389       C  0.61818796  0.36399249  0.46717441     0.05200
C1390       C  0.64666274  0.38181014  0.45000803    -0.09300
C1391       C  0.65638051  0.41202783  0.43308520     0.06000
C1392       C  0.63725027  0.42229576  0.42922305    -0.13600
Br1393     Br  0.58180861  0.42451051  0.52532354    -0.05700
Br1394     Br  0.56168322  0.42136751  0.29535285    -0.00100
Br1395     Br  0.60518696  0.32654528  0.50107293     0.00400
Br1396     Br  0.65035286  0.46263287  0.40361979    -0.04100
Br1397     Br  0.54161314  0.44917421  0.48673628     0.00500
Br1398     Br  0.58577666  0.38042918  0.33785195    -0.03300
Br1399     Br  0.55908410  0.34669770  0.47790600    -0.04200
Br1400     Br  0.69526607  0.43977978  0.41257024    -0.00200
C1401       C  0.65751498  0.29094996  0.17495083     0.01200
C1402       C  0.63503959  0.27368715  0.20569690     0.04000
C1403       C  0.61829136  0.24020073  0.20105850    -0.12100
C1404       C  0.62440151  0.22372196  0.16633651     0.23300
C1405       C  0.64751521  0.24092951  0.13662522    -0.12600
C1406       C  0.66401017  0.27445145  0.14086918     0.04700
C1407       C  0.60483042  0.18857531  0.15825620     0.27100
C1408       C  0.61342057  0.16830612  0.17158624    -0.13300
C1409       C  0.59460741  0.13498934  0.16305781     0.05200
C1410       C  0.56677469  0.12163899  0.14155623    -0.09300
C1411       C  0.55769972  0.14230414  0.13180573     0.06000
C1412       C  0.57708126  0.17547956  0.13788718    -0.13600
Br1413     Br  0.65570631  0.21862411  0.08841669    -0.05700
Br1414     Br  0.62773311  0.29579499  0.25543374    -0.00100
Br1415     Br  0.60661438  0.10808064  0.18487993     0.00400
Br1416     Br  0.56580656  0.20333184  0.11702228    -0.04100
Br1417     Br  0.69434309  0.29745531  0.09785114     0.00500
Br1418     Br  0.58587778  0.21698433  0.24068503    -0.03300
Br1419     Br  0.65119186  0.18627238  0.20109856    -0.04200
Br1420     Br  0.51865109  0.12665562  0.11212344    -0.00200
C1421       C  0.89916697  0.46291719  0.15175864     0.01200
C1422       C  0.87806816  0.43176240  0.13423131     0.04000
C1423       C  0.84951780  0.41721241  0.14866592    -0.12100
C1424       C  0.84184160  0.43480922  0.17804714     0.21900
C1425       C  0.86326828  0.46558978  0.19694859    -0.12600
C1426       C  0.89205258  0.47935360  0.18452580     0.04700
C1427       C  0.81098347  0.42231404  0.18456790     0.27100
C1428       C  0.79698644  0.43241207  0.15643681    -0.13300
C1429       C  0.76704158  0.41833424  0.15870736     0.05200
C1430       C  0.75084904  0.39367579  0.18897792    -0.09300
C1431       C  0.76534449  0.38490619  0.21900405     0.06000
C1432       C  0.79540202  0.39949972  0.21704464    -0.13600
Br1433     Br  0.85268391  0.48977518  0.23645525    -0.05700
Br1434     Br  0.88747324  0.91079448  0.08472120    -0.00100
Br1435     Br  0.74874330  0.43204629  0.11760849     0.00400
Br1436     Br  0.81549637  0.38821423  0.25836839    -0.04100
Br1437     Br  0.92142117  0.52200873  0.20870411     0.00500
Br1438     Br  0.82070491  0.37377638  0.12673019    -0.03300
Br1439     Br  0.81838200  0.96563675  0.11344398    -0.04200
Br1440     Br  0.74446893  0.35320346  0.26350533    -0.00200
C1441       C  0.59074722  0.47297966  0.14037973     0.01200
C1442       C  0.57535298  0.43992750  0.14602052     0.04000
C1443       C  0.59024221  0.42508743  0.15471112    -0.12100
C1444       C  0.62070527  0.44270935  0.15523538     0.23300
C1445       C  0.63617901  0.47555098  0.14867133    -0.12600
C1446       C  0.62135556  0.49084550  0.14286355     0.04700
C1447       C  0.63619947  0.42635867  0.16184295     0.27100
C1448       C  0.64084946  0.41991607  0.20716717    -0.13300
C1449       C  0.65284338  0.40176104  0.21313012     0.05200
C1450       C  0.66118473  0.39090954  0.17386737    -0.09300
C1451       C  0.65770482  0.39832020  0.12875458     0.06000
C1452       C  0.64550115  0.41622615  0.12276310    -0.13600
Br1453     Br  0.67768140  0.49905066  0.14503325    -0.05700
Br1454     Br  0.53377527  0.41454868  0.14134225    -0.00100
Br1455     Br  0.65779981  0.39148664  0.27489254     0.00400
Br1456     Br  0.64332174  0.42842681  0.06133842    -0.04100
Br1457     Br  0.64302575  0.03547032  0.13420429     0.00500
Br1458     Br  0.56885259  0.38017971  0.16444278    -0.03300
Br1459     Br  0.63262317  0.43774307  0.26117309    -0.04200
Br1460     Br  0.66991984  0.38395651  0.07522960    -0.00200
C1461       C  0.87796974  0.16196719  0.26277057     0.01200
C1462       C  0.89644426  0.17036050  0.30275160     0.04000
C1463       C  0.91103711  0.15501740  0.30922107    -0.12100
C1464       C  0.90769851  0.13156458  0.27543090     0.23300
C1465       C  0.89029214  0.12410554  0.23454359    -0.12600
C1466       C  0.87534149  0.13912761  0.22825244     0.04700
C1467       C  0.92070870  0.11309155  0.28471394     0.27100
C1468       C  0.95020471  0.12590790  0.27749425    -0.13300
C1469       C  0.96259184  0.10870346  0.28836751     0.05200
C1470       C  0.94543419  0.07851029  0.30677123    -0.09300
C1471       C  0.91583882  0.06600543  0.31419637     0.06000
C1472       C  0.90349900  0.08292859  0.30239537    -0.13600
Br1473     Br  0.88635524  0.09237568  0.18826650    -0.05700
Br1474     Br  0.90066130  0.20144507  0.35045248    -0.00100
Br1475     Br  0.00277843  0.12637829  0.27641630     0.00400
Br1476     Br  0.86273217  0.06476890  0.31056901    -0.04100
Br1477     Br  0.85151168  0.12861723  0.17213157     0.00500
Br1478     Br  0.93464027  0.16502482  0.36551865    -0.03300
Br1479     Br  0.97335542  0.16699741  0.25212926    -0.04200
Br1480     Br  0.89197189  0.02678263  0.34392948    -0.00200
C1481       C  0.86863372  0.25380533  0.25904585     0.01200
C1482       C  0.86922545  0.26880576  0.21866420     0.04000
C1483       C  0.88310636  0.30219631  0.22080005    -0.12100
C1484       C  0.89809516  0.32077223  0.26242125     0.23300
C1485       C  0.89720719  0.30550439  0.30274148    -0.12600
C1486       C  0.88109848  0.27211810  0.30168771     0.04700
C1487       C  0.91677450  0.35616802  0.26325351     0.27100
C1488       C  0.94687629  0.37118713  0.26156053    -0.13300
C1489       C  0.96518120  0.40447855  0.26929299     0.05200
C1490       C  0.95366003  0.42331419  0.27894343    -0.09300
C1491       C  0.92339831  0.40852448  0.27109537     0.06000
C1492       C  0.90496290  0.37491024  0.26631626    -0.13600
Br1493     Br  0.91975956  0.33013061  0.35857140    -0.05700
Br1494     Br  0.85174171  0.24367491  0.16032960    -0.00100
Br1495     Br  0.50573484  0.42408910  0.25986650     0.00400
Br1496     Br  0.86353831  0.35442011  0.26624231    -0.04100
Br1497     Br  0.87460184  0.25150999  0.35923020     0.00500
Br1498     Br  0.88210711  0.32249568  0.16668150    -0.03300
Br1499     Br  0.96303178  0.34579103  0.24977722    -0.04200
Br1500     Br  0.90686007  0.43317800  0.26123399    -0.00200
C1501       C  0.63232282  0.06242435  0.31216705     0.01200
C1502       C  0.65054725  0.09585704  0.32173308     0.04000
C1503       C  0.67975998  0.11229777  0.30973269    -0.12100
C1504       C  0.69131376  0.09533092  0.29045065     0.23300
C1505       C  0.67334593  0.06216404  0.28094380    -0.12600
C1506       C  0.64392848  0.04580164  0.29113888     0.04700
C1507       C  0.72253363  0.11226281  0.28099679     0.27100
C1508       C  0.73294313  0.12813366  0.23963677    -0.13300
C1509       C  0.76273734  0.14528145  0.23173364     0.05200
C1510       C  0.78219686  0.14645870  0.26506424    -0.09300
C1511       C  0.77155064  0.12942696  0.30554109     0.06000
C1512       C  0.74178454  0.11232155  0.31339515    -0.13600
Br1513     Br  0.68943425  0.03929649  0.25420798    -0.05700
Br1514     Br  0.63580690  0.11973485  0.34992444    -0.00100
Br1515     Br  0.77675573  0.16651441  0.17468934     0.00400
Br1516     Br  0.72732044  0.08897658  0.36868358    -0.04100
Br1517     Br  0.62030679  0.00030951  0.27834374     0.00500
Br1518     Br  0.70397664  0.15825426  0.31821967    -0.03300
Br1519     Br  0.70620125  0.12631873  0.19406677    -0.04200
Br1520     Br  0.79770271  0.13079405  0.35179326    -0.00200
C1521       C  0.94550874  0.07877353  0.05476299     0.01200
C1522       C  0.95963259  0.10433661  0.52524651     0.04000
C1523       C  0.94736907  0.12175446  0.51552920    -0.12100
C1524       C  0.91995619  0.11214614  0.03168343     0.23300
C1525       C  0.90429322  0.08452707  0.05607283    -0.12600
C1526       C  0.91723736  0.06839107  0.06876209     0.04700
C1527       C  0.90694508  0.13041701  0.02226788     0.27100
C1528       C  0.91017289  0.15381858  0.05606367    -0.13300
C1529       C  0.89521686  0.16873534  0.04971329     0.05200
C1530       C  0.87703685  0.16029474  0.00932281    -0.09300
C1531       C  0.87468356  0.13764728  0.47475591     0.06000
C1532       C  0.88958389  0.12268985  0.48131826    -0.13600
Br1533     Br  0.86431700  0.06789070  0.06919299    -0.05700
Br1534     Br  0.99483295  0.11507238  0.49555831    -0.00100
Br1535     Br  0.89855918  0.19944661  0.09779019     0.00400
Br1536     Br  0.88586070  0.09097320  0.43501289    -0.04100
Br1537     Br  0.89414721  0.02954372  0.09949786     0.00500
Br1538     Br  0.96776070  0.15861917  0.47944553    -0.03300
Br1539     Br  0.93471479  0.16485857  0.11149663    -0.04200
Br1540     Br  0.85178925  0.12762570  0.41780414    -0.00200
C1541       C  0.96152406  0.42559638  0.05691111     0.01200
C1542       C  0.95855917  0.40368343  0.08856556     0.04000
C1543       C  0.94317702  0.37102035  0.07483959    -0.12100
C1544       C  0.92666125  0.35948186  0.03236749     0.23300
C1545       C  0.92722746  0.38098188  0.00249687    -0.12600
C1546       C  0.94567942  0.41400703  0.01347562     0.04700
C1547       C  0.90870281  0.32473127  0.01949887     0.27100
C1548       C  0.92148611  0.30952470  0.99904649    -0.13300
C1549       C  0.90536842  0.27612315  0.49105682     0.05200
C1550       C  0.87607792  0.25737299  0.00457098    -0.09300
C1551       C  0.86298168  0.27339732  0.02286279     0.06000
C1552       C  0.87922068  0.30688573  0.02924095    -0.13600
Br1553     Br  0.90234999  0.36495806  0.44699596    -0.05700
Br1554     Br  0.97156721  0.41765175  0.15288374    -0.00100
Br1555     Br  0.92444315  0.25753642  0.46023989     0.00400
Br1556     Br  0.86099994  0.32867152  0.05111965    -0.04100
Br1557     Br  0.94936765  0.44266344  0.46805021     0.00500
Br1558     Br  0.94583043  0.34241932  0.11330737    -0.03300
Br1559     Br  0.96148310  0.33508825  0.48208225    -0.04200
Br1560     Br  0.82344815  0.25106341  0.04266141    -0.00200
C1561       C  0.78411710  0.15193280  0.00211932     0.01200
C1562       C  0.76682826  0.15643354  0.47133476     0.04000
C1563       C  0.73681574  0.14034599  0.47684486    -0.12100
C1564       C  0.72383345  0.12011548  0.01343345     0.23300
C1565       C  0.74087853  0.11524917  0.04393035    -0.12600
C1566       C  0.77088594  0.13095405  0.03828157     0.04700
C1567       C  0.69227805  0.10427373  0.02012999     0.27100
C1568       C  0.68142995  0.12175401  0.04049684    -0.13300
C1569       C  0.65165690  0.10649848  0.04782876     0.05200
C1570       C  0.63278459  0.07325714  0.03778645    -0.09300
C1571       C  0.64352350  0.05617548  0.01517290     0.06000
C1572       C  0.67304393  0.07181270  0.00560233    -0.13600
Br1573     Br  0.72309471  0.08760648  0.09432668    -0.05700
Br1574     Br  0.78386944  0.18423279  0.42091843    -0.00100
Br1575     Br  0.63656213  0.13166773  0.06854863     0.00400
Br1576     Br  0.68737080  0.04861815  0.97330292    -0.04100
Br1577     Br  0.79371074  0.12499521  0.08251862     0.00500
Br1578     Br  0.71310691  0.14593956  0.43449322    -0.03300
Br1579     Br  0.70750071  0.16653901  0.05924850    -0.04200
Br1580     Br  0.61881249  0.01091154  0.00018733    -0.00200
C1581       C  0.86049997  0.17508693  0.50368287     0.80100
N1582       N  0.87461201  0.20724841  0.50477763    -0.78200
C1583       C  0.86001141  0.22168563  0.50147640     0.82500
N1584       N  0.83067163  0.20315545  0.49858623    -0.78200
C1585       C  0.81605835  0.17093647  0.49892404     0.82600
N1586       N  0.83114894  0.15692145  0.50100279    -0.79900
C1587       C  0.85982000  0.17516993  0.75892045     0.80100
N1588       N  0.83057949  0.15541239  0.75987997    -0.78200
C1589       C  0.81368606  0.16734527  0.75951122     0.82500
N1590       N  0.82614865  0.19921230  0.75822892    -0.78200
C1591       C  0.85527366  0.21909948  0.75706332     0.82600
N1592       N  0.87213456  0.20710759  0.75794672    -0.79900
C1593       C  0.67564649  0.37393929  0.67991469     0.80100
N1594       N  0.70487505  0.39080842  0.68539810    -0.78200
C1595       C  0.71887180  0.37557048  0.68684067     0.82500
N1596       N  0.70331276  0.34324791  0.68325100    -0.78200
C1597       C  0.67406622  0.32614226  0.67839567     0.82600
N1598       N  0.66023710  0.34158817  0.67613670    -0.79900
C1599       C  0.66440840  0.36721023  0.94549629     0.80100
N1600       N  0.65061362  0.33503662  0.93774529    -0.78200
C1601       C  0.66516426  0.32059319  0.92968536     0.82500
N1602       N  0.69448640  0.33922253  0.92906121    -0.78200
C1603       C  0.70903558  0.37138738  0.93752946     0.82600
N1604       N  0.69392681  0.38529072  0.94577471    -0.79900
C1605       C  0.60325848  0.05609464  0.55632786     0.76300
Tb1606     Tb  0.98107785  0.02527668  0.59651397     1.80700
O1607       O  0.59817144  0.06257294  0.59689741    -0.51700
O1608       O  0.57929012  0.51340876  0.64888020    -0.59200
C1609       C  0.54799300  0.08676307  0.62744116     0.92100
O1610       O  0.95661526  0.05153388  0.60923508    -0.58700
Tb1611     Tb  0.54929111  0.02054040  0.59731847     1.78100
O1612       O  0.95032733  0.48591492  0.64819368    -0.59200
O1613       O  0.50520502  0.47078315  0.59024519    -0.78000
O1614       O  0.55991517  0.07250812  0.61231098    -0.77300
O1615       O  0.53245536  0.01627908  0.51915918    -0.62600
C1616       C  0.98078108  0.46023381  0.56990216     0.91700
O1617       O  0.49698447  0.02796533  0.67489524    -0.74500
C1618       C  0.92687691  0.98088176  0.62884588     0.75100
C1619       C  0.57510254  0.48831819  0.62810691     0.76100
O1620       O  0.58110811  0.03251429  0.53511862    -0.59800
O1621       O  0.55707096  0.47838287  0.59409036    -0.51700
O1622       O  0.49723154  0.02559931  0.51981678    -0.77800
O1623       O  0.53308230  0.01989015  0.67463536    -0.61800
C1624       C  0.51461462  0.02341490  0.69616345     0.89900
C1625       C  0.51459300  0.02049871  0.49804774     0.91100
C1626       C  0.95912671  0.06175906  0.56935584     0.75500
O1627       O  0.93047784  0.99482392  0.59205196    -0.51100
O1628       O  0.97386064  0.05524364  0.54353862    -0.52300
O1629       O  0.97211048  0.47800950  0.56035209    -0.65100
O1630       O  0.52085847  0.07269234  0.63032285    -0.66300
C1631       C  0.60129831  0.04478642  0.82360655     0.76300
Tb1632     Tb  0.97727713  0.02154591  0.84840700     1.80700
O1633       O  0.59210645  0.04952241  0.86142865    -0.51700
O1634       O  0.54096664  0.47547194  0.90078320    -0.59200
C1635       C  0.54630755  0.07956138  0.87450556     0.92100
O1636       O  0.98214195  0.07101416  0.83842838    -0.58700
Tb1637     Tb  0.54245440  0.01027327  0.84520943     1.78100
O1638       O  0.93760663  0.51461253  0.88987151    -0.59200
O1639       O  0.49716742  0.46498379  0.81956092    -0.78000
O1640       O  0.55665344  0.06390632  0.85783760    -0.77300
O1641       O  0.52950605  0.01442296  0.76849121    -0.62600
C1642       C  0.97290219  0.45682535  0.80088596     0.91700
O1643       O  0.49412306  0.02094752  0.92468935    -0.74500
C1644       C  0.92380276  0.98530732  0.89376482     0.75100
C1645       C  0.55195730  0.46326708  0.87636989     0.76100
O1646       O  0.58125243  0.02295091  0.79669492    -0.59800
O1647       O  0.55757845  0.47400936  0.83646649    -0.51700
O1648       O  0.49529948  0.02555389  0.77094306    -0.77800
O1649       O  0.53173984  0.01545782  0.92372996    -0.61800
C1650       C  0.51339386  0.01880189  0.94558535     0.89900
C1651       C  0.51324312  0.02142213  0.74849354     0.91100
C1652       C  0.95780706  0.05967729  0.81832578     0.75500
O1653       O  0.93767615  0.97375942  0.87754275    -0.51100
O1654       O  0.94411702  0.02988111  0.81138927    -0.52300
O1655       O  0.96434543  0.47565362  0.80176935    -0.65100
O1656       O  0.51963315  0.06705595  0.88139396    -0.66300
C1657       C  0.56617684  0.11445651  0.88526921     0.01200
C1658       C  0.56965905  0.12826601  0.93128463     0.04000
C1659       C  0.58595170  0.16170073  0.94002655    -0.12100
C1660       C  0.60087868  0.18146699  0.90361261     0.23300
C1661       C  0.59919243  0.16756435  0.85849537    -0.12600
C1662       C  0.58069533  0.13437897  0.84878278     0.04700
C1663       C  0.61719547  0.21686093  0.91170553     0.27100
C1664       C  0.60425923  0.23299027  0.89888270    -0.13300
C1665       C  0.62011717  0.26659994  0.90269254     0.05200
C1666       C  0.64898315  0.28475780  0.92224912    -0.09300
C1667       C  0.66167873  0.26798087  0.93565930     0.06000
C1668       C  0.64589932  0.23435359  0.92973460    -0.13600
Br1669     Br  0.62276522  0.19421042  0.81048665    -0.05700
Br1670     Br  0.55325313  0.10155819  0.98269733    -0.00100
Br1671     Br  0.60189288  0.28652689  0.87716605     0.00400
Br1672     Br  0.66345619  0.21168340  0.94618168    -0.04100
Br1673     Br  0.57352467  0.11651004  0.78495845     0.00500
Br1674     Br  0.58723667  0.18052882  0.00143894    -0.03300
Br1675     Br  0.56427967  0.20843541  0.87623672    -0.04200
Br1676     Br  0.70033781  0.28962554  0.46356924    -0.00200
C1677       C  0.89415297  0.46673798  0.91356109     0.01200
C1678       C  0.87440659  0.43375852  0.90129212     0.04000
C1679       C  0.84458004  0.41894571  0.90919408    -0.12100
C1680       C  0.83404209  0.43669530  0.92966314     0.23300
C1681       C  0.85387802  0.46851931  0.94649435    -0.12600
C1682       C  0.88329830  0.98333215  0.93843309     0.04700
C1683       C  0.80214731  0.42187129  0.93316098     0.27100
C1684       C  0.78590726  0.42250219  0.89562708    -0.13300
C1685       C  0.75555484  0.40678122  0.89751475     0.05200
C1686       C  0.74120689  0.39075793  0.93733815    -0.09300
C1687       C  0.75758424  0.39098281  0.97543775     0.06000
C1688       C  0.78786909  0.40638027  0.97328593    -0.13600
Br1689     Br  0.83947200  0.99261294  0.97651059    -0.05700
Br1690     Br  0.88737980  0.40812924  0.87400860    -0.00100
Br1691     Br  0.73342202  0.40587056  0.84460443     0.00400
Br1692     Br  0.80996071  0.40573195  0.52469895    -0.04100
Br1693     Br  0.90969440  0.02568528  0.96646251     0.00500
Br1694     Br  0.81771101  0.37421941  0.89129166    -0.03300
Br1695     Br  0.80541237  0.44468805  0.84137695    -0.04200
Br1696     Br  0.73841221  0.36994225  0.53054037    -0.00200
C1697       C  0.55952418  0.44073249  0.89354194     0.01200
C1698       C  0.56741094  0.42389224  0.86211486     0.04000
C1699       C  0.57955675  0.40781009  0.87929904    -0.12100
C1700       C  0.58704581  0.41107518  0.92715771     0.23300
C1701       C  0.57614663  0.42421977  0.95895867    -0.12600
C1702       C  0.56098958  0.43731815  0.94223250     0.04700
C1703       C  0.60815114  0.40280538  0.94166920     0.27100
C1704       C  0.59890633  0.37390817  0.96149245    -0.13300
C1705       C  0.61818795  0.36399169  0.96717519     0.05200
C1706       C  0.64666253  0.38180945  0.95000788    -0.09300
C1707       C  0.65637965  0.41202676  0.93308421     0.06000
C1708       C  0.63724947  0.42229497  0.92922457    -0.13600
Br1709     Br  0.58180642  0.42450866  0.02532629    -0.05700
Br1710     Br  0.56168349  0.42136713  0.79535525    -0.00100
Br1711     Br  0.60518723  0.32654406  0.00107255     0.00400
Br1712     Br  0.65035170  0.46263248  0.90362295    -0.04100
Br1713     Br  0.54161189  0.44917316  0.98673796     0.00500
Br1714     Br  0.58577625  0.38042839  0.83785486    -0.03300
Br1715     Br  0.55908416  0.34669665  0.97790922    -0.04200
Br1716     Br  0.69526379  0.43977708  0.91256252    -0.00200
C1717       C  0.65751281  0.29094789  0.67494573     0.01200
C1718       C  0.63503879  0.27368557  0.70569417     0.04000
C1719       C  0.61829078  0.24019912  0.70105720    -0.12100
C1720       C  0.62440011  0.22371987  0.66633475     0.23300
C1721       C  0.64751239  0.24092694  0.63662090    -0.12600
C1722       C  0.66400690  0.27444888  0.64086311     0.04700
C1723       C  0.60482923  0.18857311  0.65825632     0.27100
C1724       C  0.61341999  0.16830445  0.67158638    -0.13300
C1725       C  0.59460677  0.13498752  0.66305995     0.05200
C1726       C  0.56677344  0.12163659  0.64156032    -0.09300
C1727       C  0.55769775  0.14230133  0.63181103     0.06000
C1728       C  0.57707948  0.17547677  0.63788950    -0.13600
Br1729     Br  0.65570198  0.21862076  0.58841137    -0.05700
Br1730     Br  0.62773422  0.29579411  0.75543262    -0.00100
Br1731     Br  0.60661447  0.10807953  0.68488251     0.00400
Br1732     Br  0.56580434  0.20332829  0.61702296    -0.04100
Br1733     Br  0.69433782  0.29745201  0.59784178     0.00500
Br1734     Br  0.58587848  0.21698330  0.74068628    -0.03300
Br1735     Br  0.65119234  0.18627164  0.70109511    -0.04200
Br1736     Br  0.51864780  0.12665256  0.61213632    -0.00200
C1737       C  0.89916679  0.46291358  0.65176171     0.01200
C1738       C  0.87806887  0.43175798  0.63423633     0.04000
C1739       C  0.84951825  0.41720737  0.64867017    -0.12100
C1740       C  0.84184106  0.43480401  0.67804964     0.21900
C1741       C  0.86326709  0.46558511  0.69695031    -0.12600
C1742       C  0.89205145  0.47934991  0.68452723     0.04700
C1743       C  0.81098262  0.42230872  0.68456757     0.27100
C1744       C  0.79698658  0.43240692  0.65643439    -0.13300
C1745       C  0.76704177  0.41833006  0.65870348     0.05200
C1746       C  0.75084813  0.39367179  0.68897371    -0.09300
C1747       C  0.76534240  0.38490142  0.71900111     0.06000
C1748       C  0.79540001  0.39949458  0.71704404    -0.13600
Br1749     Br  0.85268165  0.48976992  0.73645598    -0.05700
Br1750     Br  0.88747302  0.91079087  0.58472167    -0.00100
Br1751     Br  0.74874502  0.43204333  0.61760364     0.00400
Br1752     Br  0.81549286  0.38820915  0.75837120    -0.04100
Br1753     Br  0.92141906  0.52200579  0.70870398     0.00500
Br1754     Br  0.82070616  0.37377108  0.62673445    -0.03300
Br1755     Br  0.81838274  0.96563603  0.61344876    -0.04200
Br1756     Br  0.74446507  0.35319811  0.76350094    -0.00200
C1757       C  0.59074804  0.47298043  0.64038041     0.01200
C1758       C  0.57535421  0.43992808  0.64601958     0.04000
C1759       C  0.59024381  0.42508835  0.65470988    -0.12100
C1760       C  0.62070693  0.44271090  0.65523606     0.23300
C1761       C  0.63618030  0.47555278  0.64867377    -0.12600
C1762       C  0.62135641  0.49084686  0.64286610     0.04700
C1763       C  0.63620145  0.42636039  0.66184294     0.27100
C1764       C  0.64085034  0.41991596  0.70716661    -0.13300
C1765       C  0.65284358  0.40176006  0.71312833     0.05200
C1766       C  0.66118548  0.39090961  0.67386502    -0.09300
C1767       C  0.65770679  0.39832222  0.62875296     0.06000
C1768       C  0.64550370  0.41622891  0.62276265    -0.13600
Br1769     Br  0.67768280  0.49905340  0.64503733    -0.05700
Br1770     Br  0.53377650  0.41454863  0.64134015    -0.00100
Br1771     Br  0.65779813  0.39148287  0.77488976     0.00400
Br1772     Br  0.64332531  0.42843144  0.56133884    -0.04100
Br1773     Br  0.64302535  0.03546579  0.63418972     0.00500
Br1774     Br  0.56885467  0.38018011  0.66443787    -0.03300
Br1775     Br  0.63262311  0.43774123  0.76117360    -0.04200
Br1776     Br  0.66992221  0.38395970  0.57522722    -0.00200
C1777       C  0.87796609  0.16196486  0.76277122     0.01200
C1778       C  0.89644213  0.17035896  0.80275050     0.04000
C1779       C  0.91103411  0.15501485  0.80921944    -0.12100
C1780       C  0.90769282  0.13155995  0.77543080     0.23300
C1781       C  0.89028482  0.12409988  0.73454531    -0.12600
C1782       C  0.87533553  0.13912344  0.72825420     0.04700
C1783       C  0.92070320  0.11308705  0.78471274     0.27100
C1784       C  0.95019852  0.12590258  0.77748787    -0.13300
C1785       C  0.96258626  0.10869866  0.78836031     0.05200
C1786       C  0.94542988  0.07850682  0.80676835    -0.09300
C1787       C  0.91583493  0.06600228  0.81419717     0.06000
C1788       C  0.90349452  0.08292503  0.80239736    -0.13600
Br1789     Br  0.88634397  0.09236671  0.68827070    -0.05700
Br1790     Br  0.90066281  0.20144625  0.85044975    -0.00100
Br1791     Br  0.00277165  0.12637196  0.77640112     0.00400
Br1792     Br  0.86272825  0.06476595  0.81057650    -0.04100
Br1793     Br  0.85150511  0.12861317  0.67213416     0.00500
Br1794     Br  0.93464012  0.16502411  0.86551405    -0.03300
Br1795     Br  0.97334731  0.16699015  0.75211656    -0.04200
Br1796     Br  0.89196934  0.02678024  0.84393264    -0.00200
C1797       C  0.86863161  0.25380443  0.75905019     0.01200
C1798       C  0.86922344  0.26880500  0.71866867     0.04000
C1799       C  0.88310500  0.30219562  0.72080430    -0.12100
C1800       C  0.89809348  0.32077146  0.76242576     0.23300
C1801       C  0.89720489  0.30550346  0.80274622    -0.12600
C1802       C  0.88109647  0.27211711  0.80169210     0.04700
C1803       C  0.91677319  0.35616731  0.76325806     0.27100
C1804       C  0.94687499  0.37118610  0.76156617    -0.13300
C1805       C  0.96518014  0.40447757  0.76929758     0.05200
C1806       C  0.95365929  0.42331363  0.77894690    -0.09300
C1807       C  0.92339761  0.40852417  0.77109844     0.06000
C1808       C  0.90496192  0.37490990  0.76631933    -0.13600
Br1809     Br  0.91975573  0.33012966  0.85857724    -0.05700
Br1810     Br  0.85173869  0.24367401  0.66033455    -0.00100
Br1811     Br  0.50573315  0.42408656  0.75987210     0.00400
Br1812     Br  0.86353733  0.35442019  0.76624308    -0.04100
Br1813     Br  0.87460048  0.25150866  0.85923410     0.00500
Br1814     Br  0.88210722  0.32249519  0.66668487    -0.03300
Br1815     Br  0.96303025  0.34578953  0.74978566    -0.04200
Br1816     Br  0.90685973  0.43317804  0.76123708    -0.00200
C1817       C  0.63231962  0.06242360  0.81216349     0.01200
C1818       C  0.65054450  0.09585603  0.82173243     0.04000
C1819       C  0.67975718  0.11229682  0.80973189    -0.12100
C1820       C  0.69131048  0.09533019  0.79044708     0.23300
C1821       C  0.67334214  0.06216373  0.78093642    -0.12600
C1822       C  0.64392475  0.04580127  0.79113179     0.04700
C1823       C  0.72253041  0.11226182  0.78099428     0.27100
C1824       C  0.73294057  0.12813343  0.73963508    -0.13300
C1825       C  0.76273490  0.14528122  0.73173309     0.05200
C1826       C  0.78219385  0.14645773  0.76506412    -0.09300
C1827       C  0.77154691  0.12942489  0.80553988     0.06000
C1828       C  0.74178065  0.11231937  0.81339267    -0.13600
Br1829     Br  0.68942966  0.03929695  0.75419432    -0.05700
Br1830     Br  0.63580503  0.11973349  0.84992848    -0.00100
Br1831     Br  0.77675417  0.16651496  0.67468964     0.00400
Br1832     Br  0.72731534  0.08897232  0.86867911    -0.04100
Br1833     Br  0.62030271  0.00030946  0.77833244     0.00500
Br1834     Br  0.70397435  0.15825318  0.81822186    -0.03300
Br1835     Br  0.70619929  0.12631925  0.69406459    -0.04200
Br1836     Br  0.79769816  0.13079039  0.85179211    -0.00200
C1837       C  0.94550670  0.07877117  0.55476733     0.01200
C1838       C  0.95963406  0.10433699  0.02523852     0.04000
C1839       C  0.94737142  0.12175561  0.01552065    -0.12100
C1840       C  0.91995283  0.11214280  0.53168957     0.23300
C1841       C  0.90428993  0.08452262  0.55607658    -0.12600
C1842       C  0.91723469  0.06838708  0.56876496     0.04700
C1843       C  0.90694113  0.13041324  0.52227491     0.27100
C1844       C  0.91016742  0.15381333  0.55607222    -0.13300
C1845       C  0.89521269  0.16873141  0.54972044     0.05200
C1846       C  0.87703473  0.16029280  0.50932792    -0.09300
C1847       C  0.87468452  0.13764806  0.97475172     0.06000
C1848       C  0.88958564  0.12269142  0.98131335    -0.13600
Br1849     Br  0.86431319  0.06788449  0.56919519    -0.05700
Br1850     Br  0.99483156  0.11506809  0.99554433    -0.00100
Br1851     Br  0.89855469  0.19944264  0.59779712     0.00400
Br1852     Br  0.88586014  0.09097228  0.93501065    -0.04100
Br1853     Br  0.89414504  0.02953887  0.59949876     0.00500
Br1854     Br  0.96776269  0.15861807  0.97943241    -0.03300
Br1855     Br  0.93470562  0.16484973  0.61150887    -0.04200
Br1856     Br  0.85178712  0.12762326  0.91780256    -0.00200
C1857       C  0.96152418  0.42559566  0.55691121     0.01200
C1858       C  0.95855957  0.40368272  0.58856549     0.04000
C1859       C  0.94317799  0.37101978  0.57483892    -0.12100
C1860       C  0.92666317  0.35948150  0.53236590     0.23300
C1861       C  0.92722929  0.38098142  0.50249523    -0.12600
C1862       C  0.94567986  0.41400649  0.51347537     0.04700
C1863       C  0.90870452  0.32473101  0.51949766     0.27100
C1864       C  0.92148737  0.30952397  0.49904527    -0.13300
C1865       C  0.90536732  0.27612401  0.99105597     0.05200
C1866       C  0.87607913  0.25737274  0.50457267    -0.09300
C1867       C  0.86298351  0.27339757  0.52286495     0.06000
C1868       C  0.87922270  0.30688595  0.52924144    -0.13600
Br1869     Br  0.90234642  0.36495862  0.94699973    -0.05700
Br1870     Br  0.97156707  0.41765068  0.65288425    -0.00100
Br1871     Br  0.92444215  0.25753835  0.96023602     0.00400
Br1872     Br  0.86100260  0.32867235  0.55112014    -0.04100
Br1873     Br  0.94936959  0.44266385  0.96804845     0.00500
Br1874     Br  0.94583047  0.34241853  0.61330760    -0.03300
Br1875     Br  0.96148240  0.33508936  0.98208655    -0.04200
Br1876     Br  0.82345092  0.25106438  0.54266786    -0.00200
C1877       C  0.78411659  0.15193416  0.50211995     0.01200
C1878       C  0.76682842  0.15643167  0.97133419     0.04000
C1879       C  0.73681593  0.14034366  0.97684447    -0.12100
C1880       C  0.72383279  0.12011747  0.51343337     0.23300
C1881       C  0.74087760  0.11525103  0.54393069    -0.12600
C1882       C  0.77088503  0.13095555  0.53828227     0.04700
C1883       C  0.69227711  0.10427516  0.52012861     0.27100
C1884       C  0.68142844  0.12175458  0.54049650    -0.13300
C1885       C  0.65165521  0.10649843  0.54782745     0.05200
C1886       C  0.63278319  0.07325727  0.53778302    -0.09300
C1887       C  0.64352244  0.05617675  0.51516675     0.06000
C1888       C  0.67304323  0.07181454  0.50559804    -0.13600
Br1889     Br  0.72309343  0.08760870  0.59432720    -0.05700
Br1890     Br  0.78386915  0.18423130  0.92091815    -0.00100
Br1891     Br  0.63655961  0.13166670  0.56854801     0.00400
Br1892     Br  0.68737092  0.04862125  0.47329743    -0.04100
Br1893     Br  0.79370929  0.12499615  0.58251970     0.00500
Br1894     Br  0.71310654  0.14593617  0.93449250    -0.03300
Br1895     Br  0.70749864  0.16653919  0.55925101    -0.04200
Br1896     Br  0.61881113  0.01091363  0.50017347    -0.00200
C1897       C  0.86101611  0.67518791  0.00446446     0.80100
N1898       N  0.87510714  0.70733975  0.00517125    -0.78200
C1899       C  0.86045348  0.72172528  0.00186788     0.82500
N1900       N  0.83110885  0.70316233  0.99941012    -0.78200
C1901       C  0.81654152  0.67097277  0.00017708     0.82600
N1902       N  0.83166925  0.65700847  0.00221187    -0.79900
C1903       C  0.85979057  0.67511628  0.25926402     0.80100
N1904       N  0.83055266  0.65546938  0.26050172    -0.78200
C1905       C  0.81372152  0.66748033  0.26006833     0.82500
N1906       N  0.82626306  0.69934371  0.25835263    -0.78200
C1907       C  0.85539692  0.71913166  0.25686087     0.82600
N1908       N  0.87217950  0.70704082  0.25787814    -0.79900
C1909       C  0.67523188  0.87374921  0.17963049     0.80100
N1910       N  0.70446881  0.89070071  0.18498129    -0.78200
C1911       C  0.71853226  0.87553611  0.18633124     0.82500
N1912       N  0.70302866  0.84322788  0.18281527    -0.78200
C1913       C  0.67378833  0.82604655  0.17811282     0.82600
N1914       N  0.65988449  0.84140511  0.17590287    -0.79900
C1915       C  0.66376973  0.86696287  0.44502272     0.80100
N1916       N  0.65010301  0.83478069  0.43765400    -0.78200
C1917       C  0.66478801  0.82046792  0.42980690     0.82500
N1918       N  0.69409694  0.83922346  0.42899090    -0.78200
C1919       C  0.70852480  0.87139861  0.43710963     0.82600
N1920       N  0.69329279  0.88518141  0.44516651    -0.79900
C1921       C  0.60356644  0.55596319  0.05741438     0.76300
Tb1922     Tb  0.98131437  0.52523637  0.09760232     1.80700
O1923       O  0.59822666  0.56279128  0.09755675    -0.51700
O1924       O  0.57921245  0.01333771  0.14786959    -0.59200
C1925       C  0.54817988  0.58675347  0.12750178     0.92100
O1926       O  0.95701670  0.55168660  0.11021747    -0.58700
Tb1927     Tb  0.54942740  0.52052214  0.09802485     1.78100
O1928       O  0.95002652  0.98706987  0.14822831    -0.59200
O1929       O  0.50509360  0.97082635  0.08913613    -0.78000
O1930       O  0.56000747  0.57257147  0.11155787    -0.77300
O1931       O  0.53236691  0.51596754  0.01993194    -0.62600
C1932       C  0.98068640  0.96028899  0.06873945     0.91700
O1933       O  0.49741253  0.52830847  0.17592956    -0.74500
C1934       C  0.92721396  0.48084134  0.13034494     0.75100
C1935       C  0.57478813  0.98810778  0.12724430     0.76100
O1936       O  0.58155575  0.53208739  0.03637929    -0.59800
O1937       O  0.55664250  0.97817455  0.09341259    -0.51700
O1938       O  0.49742657  0.52573809  0.02078799    -0.77800
O1939       O  0.53333038  0.51993230  0.17545648    -0.61800
C1940       C  0.51496676  0.52359958  0.19708541     0.89900
C1941       C  0.51462408  0.52041602  0.99891382     0.91100
C1942       C  0.95924272  0.56151137  0.07008995     0.75500
O1943       O  0.93076769  0.49583905  0.09476929    -0.51100
O1944       O  0.97374499  0.55468583  0.04419928    -0.52300
O1945       O  0.97195236  0.97803543  0.05935810    -0.65100
O1946       O  0.52111821  0.57256894  0.13166398    -0.66300
C1947       C  0.60129657  0.54473927  0.32465308     0.76300
Tb1948     Tb  0.97748595  0.52165778  0.34912490     1.80700
O1949       O  0.59204851  0.54948159  0.36240747    -0.51700
O1950       O  0.54027305  0.97520670  0.39973258    -0.59200
C1951       C  0.54650367  0.57951720  0.37550888     0.92100
O1952       O  0.98221088  0.57104572  0.33877059    -0.58700
Tb1953     Tb  0.54244724  0.51009862  0.34615101     1.78100
O1954       O  0.93743081  0.01472552  0.38910206    -0.59200
O1955       O  0.49737669  0.96523483  0.31775289    -0.78000
O1956       O  0.55677946  0.56372514  0.35915994    -0.77300
O1957       O  0.52966082  0.51431630  0.26936390    -0.62600
C1958       C  0.97288006  0.95682579  0.29978560     0.91700
O1959       O  0.49429657  0.52115608  0.42553551    -0.74500
C1960       C  0.92412427  0.48520848  0.39460182     0.75100
C1961       C  0.55155822  0.96318666  0.37568255     0.76100
O1962       O  0.58129376  0.52286156  0.29771616    -0.59800
O1963       O  0.55767765  0.97423645  0.33599846    -0.51700
O1964       O  0.49569667  0.52581098  0.27181814    -0.77800
O1965       O  0.53158726  0.51510723  0.42460191    -0.61800
C1966       C  0.51340003  0.51872944  0.44644731     0.89900
C1967       C  0.51356597  0.52154773  0.24938574     0.91100
C1968       C  0.95776207  0.55958388  0.31900559     0.75500
O1969       O  0.93807456  0.47376435  0.37832723    -0.51100
O1970       O  0.94406874  0.52976815  0.31247102    -0.52300
O1971       O  0.96399324  0.97535528  0.30152852    -0.65100
O1972       O  0.51982004  0.56719417  0.38205601    -0.66300
C1973       C  0.56648284  0.61438751  0.38609058     0.01200
C1974       C  0.57022556  0.62831950  0.43208062     0.04000
C1975       C  0.58663688  0.66176613  0.44061355    -0.12100
C1976       C  0.60135395  0.68140246  0.40396657     0.23300
C1977       C  0.59940195  0.66735854  0.35884513    -0.12600
C1978       C  0.58085203  0.63416107  0.34939973     0.04700
C1979       C  0.61751853  0.71679561  0.41178766     0.27100
C1980       C  0.60439197  0.73269192  0.39878208    -0.13300
C1981       C  0.61999453  0.76628494  0.40274358     0.05200
C1982       C  0.64878772  0.78464680  0.42257697    -0.09300
C1983       C  0.66165390  0.76810406  0.43626690     0.06000
C1984       C  0.64616934  0.73450251  0.43008032    -0.13600
Br1985     Br  0.62257348  0.69383738  0.31040210    -0.05700
Br1986     Br  0.55392775  0.60176049  0.48368601    -0.00100
Br1987     Br  0.60149920  0.78591343  0.37721160     0.00400
Br1988     Br  0.66408448  0.71218594  0.44642919    -0.04100
Br1989     Br  0.57344070  0.61603290  0.28568485     0.00500
Br1990     Br  0.58828476  0.68079290  0.50203154    -0.03300
Br1991     Br  0.56451042  0.70783348  0.37560306    -0.04200
Br1992     Br  0.70008084  0.79005442  0.96520945    -0.00200
C1993       C  0.89375161  0.96691423  0.41248868     0.01200
C1994       C  0.87395944  0.93396782  0.40002434     0.04000
C1995       C  0.84408649  0.91924566  0.40744030    -0.12100
C1996       C  0.83356208  0.93694450  0.42816891     0.23300
C1997       C  0.85343274  0.96872982  0.44520818    -0.12600
C1998       C  0.88372061  0.48311738  0.43964229     0.04700
C1999       C  0.80164706  0.92206611  0.43186904     0.27100
C2000       C  0.78518660  0.92209120  0.39412176    -0.13300
C2001       C  0.75483637  0.90632379  0.39628116     0.05200
C2002       C  0.74069776  0.89089839  0.43660588    -0.09300
C2003       C  0.75727830  0.89168595  0.47487113     0.06000
C2004       C  0.78755592  0.90706479  0.47241375    -0.13600
Br2005     Br  0.83990617  0.49241666  0.47771702    -0.05700
Br2006     Br  0.88696310  0.90820895  0.37336817    -0.00100
Br2007     Br  0.73240679  0.90449435  0.34308031     0.00400
Br2008     Br  0.80987322  0.90693390  0.02393420    -0.04100
Br2009     Br  0.91011991  0.52538449  0.46782552     0.00500
Br2010     Br  0.81712164  0.87473811  0.38827898    -0.03300
Br2011     Br  0.80437970  0.94345316  0.33917093    -0.04200
Br2012     Br  0.73836899  0.87136989  0.03058383    -0.00200
C2013       C  0.55890980  0.94051524  0.39304693     0.01200
C2014       C  0.56661900  0.92344292  0.36176667     0.04000
C2015       C  0.57854673  0.90717651  0.37910370    -0.12100
C2016       C  0.58613820  0.91059961  0.42694850     0.23300
C2017       C  0.57544443  0.92404317  0.45863330    -0.12600
C2018       C  0.56038012  0.93721921  0.44177183     0.04700
C2019       C  0.60731900  0.90240936  0.44142643     0.27100
C2020       C  0.59821218  0.87362086  0.46150109    -0.13300
C2021       C  0.61753673  0.86372336  0.46696423     0.05200
C2022       C  0.64589504  0.88142815  0.44930198    -0.09300
C2023       C  0.65542103  0.91144971  0.43182990     0.06000
C2024       C  0.63632187  0.92179477  0.42847899    -0.13600
Br2025     Br  0.58132050  0.92472844  0.52500477    -0.05700
Br2026     Br  0.56100565  0.92093334  0.29500449    -0.00100
Br2027     Br  0.60472970  0.82641819  0.50110926     0.00400
Br2028     Br  0.64932994  0.96214911  0.40302533    -0.04100
Br2029     Br  0.54121000  0.94944526  0.48613381     0.00500
Br2030     Br  0.58440747  0.87941347  0.33787865    -0.03300
Br2031     Br  0.55854584  0.84660329  0.47879516    -0.04200
Br2032     Br  0.69388494  0.93865122  0.40937372    -0.00200
C2033       C  0.65734620  0.79087334  0.17470306     0.01200
C2034       C  0.63473675  0.77354296  0.20521266     0.04000
C2035       C  0.61813704  0.74006219  0.20062415    -0.12100
C2036       C  0.62444456  0.72367576  0.16607493     0.23300
C2037       C  0.64766464  0.74094756  0.13658555    -0.12600
C2038       C  0.66412018  0.77446042  0.14093075     0.04700
C2039       C  0.60494682  0.68854841  0.15788950     0.27100
C2040       C  0.61350170  0.66830427  0.17150850    -0.13300
C2041       C  0.59469884  0.63498963  0.16305315     0.05200
C2042       C  0.56698679  0.62164465  0.14116749    -0.09300
C2043       C  0.55802070  0.64227456  0.13070058     0.06000
C2044       C  0.57730966  0.67544745  0.13705389    -0.13600
Br2045     Br  0.65603610  0.71874061  0.08849502    -0.05700
Br2046     Br  0.62703976  0.79552932  0.25459476    -0.00100
Br2047     Br  0.60651636  0.60803307  0.18531931     0.00400
Br2048     Br  0.56607239  0.70328922  0.11597415    -0.04100
Br2049     Br  0.69485034  0.79755066  0.09853451     0.00500
Br2050     Br  0.58565712  0.71669736  0.24007098    -0.03300
Br2051     Br  0.65119847  0.68628833  0.20129655    -0.04200
Br2052     Br  0.51928431  0.62648130  0.10915165    -0.00200
C2053       C  0.89868401  0.96292896  0.14978605     0.01200
C2054       C  0.87756208  0.93190550  0.13174397     0.04000
C2055       C  0.84904479  0.91719233  0.14638307    -0.12100
C2056       C  0.84138440  0.93458964  0.17625033     0.21900
C2057       C  0.86280347  0.96524162  0.19554862    -0.12600
C2058       C  0.89158337  0.97912393  0.18305374     0.04700
C2059       C  0.81055300  0.92205328  0.18302225     0.27100
C2060       C  0.79655593  0.93249831  0.15562221    -0.13300
C2061       C  0.76665286  0.91855520  0.15833391     0.05200
C2062       C  0.75050439  0.89364759  0.18826251    -0.09300
C2063       C  0.76503368  0.88454828  0.21760907     0.06000
C2064       C  0.79505335  0.89905544  0.21527386    -0.13600
Br2065     Br  0.85218692  0.98905192  0.23586383    -0.05700
Br2066     Br  0.88804736  0.41031026  0.08796670    -0.00100
Br2067     Br  0.74838176  0.93286461  0.11831114     0.00400
Br2068     Br  0.81522869  0.88747399  0.25587281    -0.04100
Br2069     Br  0.92087654  0.02169719  0.20767051     0.00500
Br2070     Br  0.82031315  0.87373500  0.12440047    -0.03300
Br2071     Br  0.81885649  0.46517837  0.11375628    -0.04200
Br2072     Br  0.74428819  0.85249365  0.26170498    -0.00200
C2073       C  0.59029331  0.97262176  0.13953091     0.01200
C2074       C  0.57478144  0.93958037  0.14534650     0.04000
C2075       C  0.58955190  0.92467251  0.15447175    -0.12100
C2076       C  0.62000727  0.94218255  0.15509433     0.23300
C2077       C  0.63559844  0.97497507  0.14816465    -0.12600
C2078       C  0.62089720  0.99035972  0.14197228     0.04700
C2079       C  0.63538846  0.92572423  0.16170330     0.27100
C2080       C  0.64010118  0.91932616  0.20702442    -0.13300
C2081       C  0.65230966  0.90138529  0.21294741     0.05200
C2082       C  0.66067565  0.89060140  0.17364662    -0.09300
C2083       C  0.65702848  0.89786323  0.12853287     0.06000
C2084       C  0.64466473  0.91559969  0.12258023    -0.13600
Br2085     Br  0.67709104  0.99824330  0.14442715    -0.05700
Br2086     Br  0.53322517  0.91423485  0.13990822    -0.00100
Br2087     Br  0.65760550  0.89137691  0.27470746     0.00400
Br2088     Br  0.64217535  0.92753032  0.06110475    -0.04100
Br2089     Br  0.64332892  0.53606383  0.13601292     0.00500
Br2090     Br  0.56801663  0.87981354  0.16458448    -0.03300
Br2091     Br  0.63157141  0.93681109  0.26108384    -0.04200
Br2092     Br  0.66929655  0.88359720  0.07496146    -0.00200
C2093       C  0.87785106  0.66179080  0.26305919     0.01200
C2094       C  0.89650853  0.67027413  0.30282175     0.04000
C2095       C  0.91105624  0.65487216  0.30919087    -0.12100
C2096       C  0.90732036  0.63108715  0.27569238     0.23300
C2097       C  0.88958330  0.62337256  0.23514637    -0.12600
C2098       C  0.87491198  0.63869299  0.22873456     0.04700
C2099       C  0.92035794  0.61263809  0.28494812     0.27100
C2100       C  0.94971771  0.62523283  0.27680840    -0.13300
C2101       C  0.96222196  0.60818509  0.28793042     0.05200
C2102       C  0.94528766  0.57830790  0.30731897    -0.09300
C2103       C  0.91578842  0.56595336  0.31542701     0.06000
C2104       C  0.90336313  0.58279351  0.30362353    -0.13600
Br2105     Br  0.88470607  0.59081231  0.18961631    -0.05700
Br2106     Br  0.90106506  0.70155763  0.35040920    -0.00100
Br2107     Br  0.00222901  0.62559048  0.27490886     0.00400
Br2108     Br  0.86277338  0.56497359  0.31312773    -0.04100
Br2109     Br  0.85116900  0.62837812  0.17257915     0.00500
Br2110     Br  0.93513857  0.66524153  0.36500824    -0.03300
Br2111     Br  0.97249532  0.66578776  0.24981007    -0.04200
Br2112     Br  0.89216010  0.52699728  0.34586511    -0.00200
C2113       C  0.86889314  0.75387484  0.25839632     0.01200
C2114       C  0.86894343  0.76862265  0.21803895     0.04000
C2115       C  0.88302352  0.80203819  0.21970283    -0.12100
C2116       C  0.89861344  0.82085965  0.26083773     0.23300
C2117       C  0.89824284  0.80585926  0.30114688    -0.12600
C2118       C  0.88208692  0.77249347  0.30058378     0.04700
C2119       C  0.91712178  0.85625010  0.26135209     0.27100
C2120       C  0.94722531  0.87146444  0.25910215    -0.13300
C2121       C  0.96542316  0.90474777  0.26728563     0.05200
C2122       C  0.95375591  0.92337496  0.27758977    -0.09300
C2123       C  0.92345072  0.90843111  0.27008563     0.06000
C2124       C  0.90515572  0.87481841  0.26521241    -0.13600
Br2125     Br  0.92138482  0.83084947  0.35638398    -0.05700
Br2126     Br  0.85040346  0.74311031  0.16036826    -0.00100
Br2127     Br  0.50600597  0.92466570  0.25765274     0.00400
Br2128     Br  0.86373477  0.85410067  0.26627881    -0.04100
Br2129     Br  0.87642058  0.75236025  0.35833729     0.00500
Br2130     Br  0.88142263  0.82202022  0.16561422    -0.03300
Br2131     Br  0.96352281  0.84633475  0.24603149    -0.04200
Br2132     Br  0.90665958  0.93287758  0.26057615    -0.00200
C2133       C  0.63234318  0.56239137  0.31335404     0.01200
C2134       C  0.65056538  0.59581082  0.32302674     0.04000
C2135       C  0.67982086  0.61225055  0.31128255    -0.12100
C2136       C  0.69139295  0.59530602  0.29198147     0.23300
C2137       C  0.67343335  0.56214077  0.28241921    -0.12600
C2138       C  0.64399643  0.54578115  0.29247690     0.04700
C2139       C  0.72259102  0.61229654  0.28233300     0.27100
C2140       C  0.73286309  0.62822589  0.24099197    -0.13300
C2141       C  0.76263777  0.64547874  0.23289036     0.05200
C2142       C  0.78222822  0.64666952  0.26597431    -0.09300
C2143       C  0.77170211  0.62956454  0.30643491     0.06000
C2144       C  0.74195793  0.61241463  0.31453666    -0.13600
Br2145     Br  0.68953353  0.53925177  0.25579022    -0.05700
Br2146     Br  0.63576103  0.61968486  0.35095112    -0.00100
Br2147     Br  0.77640781  0.66677196  0.17584698     0.00400
Br2148     Br  0.72767183  0.58911415  0.36992554    -0.04100
Br2149     Br  0.62040514  0.50030746  0.27969066     0.00500
Br2150     Br  0.70409226  0.65818496  0.32023744    -0.03300
Br2151     Br  0.70593842  0.62633546  0.19571118    -0.04200
Br2152     Br  0.79797284  0.63082705  0.35232205    -0.00200
C2153       C  0.94559310  0.57845196  0.05533346     0.01200
C2154       C  0.95943836  0.60350184  0.52488775     0.04000
C2155       C  0.94730274  0.62105228  0.51524118    -0.12100
C2156       C  0.92012975  0.61186353  0.03209499     0.23300
C2157       C  0.90453634  0.58446506  0.05694348    -0.12600
C2158       C  0.91749456  0.56840334  0.06989750     0.04700
C2159       C  0.90722730  0.63024556  0.02276694     0.27100
C2160       C  0.91059836  0.65371229  0.05657380    -0.13300
C2161       C  0.89580999  0.66881819  0.05023112     0.05200
C2162       C  0.87755401  0.66038905  0.00994959    -0.09300
C2163       C  0.87493866  0.63754415  0.47548780     0.06000
C2164       C  0.88974616  0.62248196  0.48197523    -0.13600
Br2165     Br  0.86456310  0.56788922  0.07000122    -0.05700
Br2166     Br  0.99384661  0.61309564  0.49345649    -0.00100
Br2167     Br  0.89942449  0.69971604  0.09821498     0.00400
Br2168     Br  0.88558702  0.59041147  0.43596295    -0.04100
Br2169     Br  0.89456005  0.53003678  0.10173062     0.00500
Br2170     Br  0.96746749  0.65740561  0.47813467    -0.03300
Br2171     Br  0.93495363  0.66442468  0.11214865    -0.04200
Br2172     Br  0.85170420  0.62727943  0.41886456    -0.00200
C2173       C  0.96151378  0.92566651  0.05554206     0.01200
C2174       C  0.95849120  0.90372534  0.08717489     0.04000
C2175       C  0.94318463  0.87108173  0.07338441    -0.12100
C2176       C  0.92689722  0.85958244  0.03070543     0.23300
C2177       C  0.92755853  0.88109194  0.00074596    -0.12600
C2178       C  0.94585001  0.91411803  0.01194559     0.04700
C2179       C  0.90893556  0.82482828  0.01792561     0.27100
C2180       C  0.92172171  0.80955327  0.99775383    -0.13300
C2181       C  0.90568497  0.77611287  0.49045567     0.05200
C2182       C  0.87646628  0.75741030  0.00435535    -0.09300
C2183       C  0.86335931  0.77350292  0.02233037     0.06000
C2184       C  0.87951277  0.80701111  0.02799025    -0.13600
Br2185     Br  0.90301921  0.86505792  0.44484411    -0.05700
Br2186     Br  0.97131943  0.91764697  0.15152983    -0.00100
Br2187     Br  0.92480314  0.75741591  0.46015458     0.00400
Br2188     Br  0.86129640  0.82889514  0.04941448    -0.04100
Br2189     Br  0.94955511  0.94284389  0.46665677     0.00500
Br2190     Br  0.94551868  0.84240075  0.11214089    -0.03300
Br2191     Br  0.96162940  0.83509003  0.48033631    -0.04200
Br2192     Br  0.82397029  0.75128708  0.04278227    -0.00200
C2193       C  0.78463303  0.65195058  0.00379680     0.01200
C2194       C  0.76714793  0.65614298  0.47300787     0.04000
C2195       C  0.73715446  0.63993201  0.47876786    -0.12100
C2196       C  0.72439714  0.61996518  0.01569535     0.23300
C2197       C  0.74164276  0.61542248  0.04624120    -0.12600
C2198       C  0.77162625  0.63118536  0.04026405     0.04700
C2199       C  0.69284942  0.60402754  0.02255960     0.27100
C2200       C  0.68191863  0.62154716  0.04242545    -0.13300
C2201       C  0.65209876  0.60632799  0.04930489     0.05200
C2202       C  0.63321921  0.57307772  0.03925658    -0.09300
C2203       C  0.64406260  0.55596593  0.01706162     0.06000
C2204       C  0.67366867  0.57155100  0.00809205    -0.13600
Br2205     Br  0.72417138  0.58811455  0.09707888    -0.05700
Br2206     Br  0.78388122  0.68366982  0.42222885    -0.00100
Br2207     Br  0.63696677  0.63161078  0.06915069     0.00400
Br2208     Br  0.68818826  0.54831293  0.97652585    -0.04100
Br2209     Br  0.79472959  0.62556699  0.08439462     0.00500
Br2210     Br  0.71313615  0.64493821  0.43621883    -0.03300
Br2211     Br  0.70794003  0.66639305  0.06087732    -0.04200
Br2212     Br  0.61933125  0.51077140  0.00150474    -0.00200
C2213       C  0.86101728  0.67518744  0.50446512     0.80100
N2214       N  0.87510826  0.70733921  0.50517082    -0.78200
C2215       C  0.86045460  0.72172474  0.50186816     0.82500
N2216       N  0.83110996  0.70316178  0.49941212    -0.78200
C2217       C  0.81654263  0.67097230  0.50018018     0.82600
N2218       N  0.83167039  0.65700797  0.50221437    -0.79900
C2219       C  0.85978937  0.67511490  0.75925675     0.80100
N2220       N  0.83055147  0.65546816  0.76049486    -0.78200
C2221       C  0.81372040  0.66747921  0.76006161     0.82500
N2222       N  0.82626199  0.69934253  0.75834589    -0.78200
C2223       C  0.85539579  0.71913039  0.75685366     0.82600
N2224       N  0.87217837  0.70703949  0.75787071    -0.79900
C2225       C  0.67523220  0.87374696  0.67962870     0.80100
N2226       N  0.70446905  0.89069796  0.68498032    -0.78200
C2227       C  0.71853209  0.87553291  0.68633038     0.82500
N2228       N  0.70302811  0.84322465  0.68281393    -0.78200
C2229       C  0.67378780  0.82604379  0.67811099     0.82600
N2230       N  0.65988441  0.84140284  0.67590076    -0.79900
C2231       C  0.66376978  0.86696168  0.94502708     0.80100
N2232       N  0.65010321  0.83477955  0.93765764    -0.78200
C2233       C  0.66478847  0.82046705  0.92981083     0.82500
N2234       N  0.69409739  0.83922271  0.92899558    -0.78200
C2235       C  0.70852508  0.87139773  0.93711520     0.82600
N2236       N  0.69329288  0.88518032  0.94517196    -0.79900
C2237       C  0.60356666  0.55596289  0.55741577     0.76300
Tb2238     Tb  0.98131371  0.52523445  0.59760383     1.80700
O2239       O  0.59822606  0.56279162  0.59755703    -0.51700
O2240       O  0.57921406  0.01333656  0.64786652    -0.59200
C2241       C  0.54817824  0.58675124  0.62750373     0.92100
O2242       O  0.95701374  0.55168214  0.61021603    -0.58700
Tb2243     Tb  0.54942710  0.52052176  0.59802458     1.78100
O2244       O  0.95002604  0.98706373  0.64822365    -0.59200
O2245       O  0.50509244  0.97082535  0.58913959    -0.78000
O2246       O  0.56000585  0.57257092  0.61155243    -0.77300
O2247       O  0.53236628  0.51596658  0.51993162    -0.62600
C2248       C  0.98068676  0.96028816  0.56873962     0.91700
O2249       O  0.49741275  0.52830824  0.67593076    -0.74500
C2250       C  0.92721334  0.48083863  0.63034660     0.75100
C2251       C  0.57478762  0.98810518  0.62724314     0.76100
O2252       O  0.58155647  0.53208642  0.53638075    -0.59800
O2253       O  0.55663998  0.97817086  0.59341423    -0.51700
O2254       O  0.49742562  0.52573670  0.52078857    -0.77800
O2255       O  0.53333039  0.51993166  0.67545670    -0.61800
C2256       C  0.51496695  0.52359907  0.69708610     0.89900
C2257       C  0.51462323  0.52041493  0.49891386     0.91100
C2258       C  0.95924322  0.56151031  0.57009020     0.75500
O2259       O  0.93076735  0.49584291  0.59477865    -0.51100
O2260       O  0.97374849  0.55468778  0.54420193    -0.52300
O2261       O  0.97195387  0.97803501  0.55935416    -0.65100
O2262       O  0.52111698  0.57256520  0.63167257    -0.66300
C2263       C  0.60129641  0.54473812  0.82465323     0.76300
Tb2264     Tb  0.97748642  0.52165832  0.84912526     1.80700
O2265       O  0.59204845  0.54948099  0.86240731    -0.51700
O2266       O  0.54026896  0.97520246  0.89973078    -0.59200
C2267       C  0.54650448  0.57951738  0.87550856     0.92100
O2268       O  0.98220999  0.57104546  0.83876986    -0.58700
Tb2269     Tb  0.54244718  0.51009791  0.84615174     1.78100
O2270       O  0.93743022  0.01472572  0.88910355    -0.59200
O2271       O  0.49737305  0.96523314  0.81775700    -0.78000
O2272       O  0.55678009  0.56372461  0.85916200    -0.77300
O2273       O  0.52966088  0.51431544  0.76936445    -0.62600
C2274       C  0.97287677  0.95682465  0.79978708     0.91700
O2275       O  0.49429763  0.52115706  0.92553536    -0.74500
C2276       C  0.92412534  0.48520957  0.89460390     0.75100
C2277       C  0.55155806  0.96318621  0.87568277     0.76100
O2278       O  0.58129351  0.52286003  0.79771683    -0.59800
O2279       O  0.55767993  0.97423868  0.83600069    -0.51700
O2280       O  0.49569730  0.52581099  0.77181868    -0.77800
O2281       O  0.53158789  0.51510748  0.92460239    -0.61800
C2282       C  0.51340093  0.51873027  0.94644740     0.89900
C2283       C  0.51356634  0.52154729  0.74938634     0.91100
C2284       C  0.95776105  0.55958283  0.81900482     0.75500
O2285       O  0.93807532  0.47376520  0.87832864    -0.51100
O2286       O  0.94406829  0.52976712  0.81247080    -0.52300
O2287       O  0.96399108  0.97535517  0.80152723    -0.65100
O2288       O  0.51982071  0.56719530  0.88205309    -0.66300
C2289       C  0.56648417  0.61438752  0.88609062     0.01200
C2290       C  0.57022715  0.62831933  0.93208083     0.04000
C2291       C  0.58663908  0.66176591  0.94061412    -0.12100
C2292       C  0.60135646  0.68140223  0.90396732     0.23300
C2293       C  0.59940455  0.66735843  0.85884591    -0.12600
C2294       C  0.58085374  0.63416114  0.84940001     0.04700
C2295       C  0.61752068  0.71679526  0.91178838     0.27100
C2296       C  0.60439396  0.73269124  0.89878187    -0.13300
C2297       C  0.61999597  0.76628419  0.90274461     0.05200
C2298       C  0.64878863  0.78464614  0.92258007    -0.09300
C2299       C  0.66165492  0.76810372  0.93627087     0.06000
C2300       C  0.64617110  0.73450232  0.93008267    -0.13600
Br2301     Br  0.62257763  0.69383717  0.81040389    -0.05700
Br2302     Br  0.55392838  0.60176021  0.98368585    -0.00100
Br2303     Br  0.60150073  0.78591257  0.87721197     0.00400
Br2304     Br  0.66408683  0.71218630  0.94643109    -0.04100
Br2305     Br  0.57344133  0.61603350  0.78568481     0.00500
Br2306     Br  0.58828748  0.68079265  0.00203236    -0.03300
Br2307     Br  0.56451303  0.70783246  0.87559967    -0.04200
Br2308     Br  0.70008087  0.79005458  0.46520135    -0.00200
C2309       C  0.89375158  0.96691424  0.91249136     0.01200
C2310       C  0.87395971  0.93396770  0.90002745     0.04000
C2311       C  0.84408683  0.91924506  0.90744416    -0.12100
C2312       C  0.83356214  0.93694358  0.92817281     0.23300
C2313       C  0.85343253  0.96872893  0.94521216    -0.12600
C2314       C  0.88372179  0.48311876  0.93964449     0.04700
C2315       C  0.80164714  0.92206487  0.93187308     0.27100
C2316       C  0.78518649  0.92208986  0.89412603    -0.13300
C2317       C  0.75483627  0.90632219  0.89628572     0.05200
C2318       C  0.74069799  0.89089760  0.93661111    -0.09300
C2319       C  0.75727876  0.89168537  0.97487616     0.06000
C2320       C  0.78755624  0.90706348  0.97241782    -0.13600
Br2321     Br  0.83990754  0.49241815  0.97771986    -0.05700
Br2322     Br  0.88696356  0.90820934  0.87337012    -0.00100
Br2323     Br  0.73240621  0.90449081  0.84308408     0.00400
Br2324     Br  0.80987277  0.90693678  0.52393190    -0.04100
Br2325     Br  0.91012099  0.52538621  0.96782626     0.00500
Br2326     Br  0.81712246  0.87473713  0.88828446    -0.03300
Br2327     Br  0.80437930  0.94345194  0.83917509    -0.04200
Br2328     Br  0.73836796  0.87136916  0.53057782    -0.00200
C2329       C  0.55891103  0.94051598  0.89304727     0.01200
C2330       C  0.56662100  0.92344454  0.86176674     0.04000
C2331       C  0.57854939  0.90717866  0.87910337    -0.12100
C2332       C  0.58613969  0.91060037  0.92694851     0.23300
C2333       C  0.57544520  0.92404307  0.95863341    -0.12600
C2334       C  0.56038163  0.93722005  0.94177217     0.04700
C2335       C  0.60731977  0.90240916  0.94142720     0.27100
C2336       C  0.59821195  0.87361996  0.96150054    -0.13300
C2337       C  0.61753606  0.86372195  0.96696489     0.05200
C2338       C  0.64589504  0.88142698  0.94930507    -0.09300
C2339       C  0.65542184  0.91144899  0.93183387     0.06000
C2340       C  0.63632311  0.92179456  0.92848197    -0.13600
Br2341     Br  0.58131872  0.92472508  0.02500493    -0.05700
Br2342     Br  0.56100700  0.92093502  0.79500460    -0.00100
Br2343     Br  0.60472717  0.82641533  0.00110742     0.00400
Br2344     Br  0.64933254  0.96214960  0.90302964    -0.04100
Br2345     Br  0.54121378  0.94944877  0.98613486     0.00500
Br2346     Br  0.58441207  0.87941765  0.83787723    -0.03300
Br2347     Br  0.55854477  0.84660191  0.97879033    -0.04200
Br2348     Br  0.69388632  0.93865038  0.90937953    -0.00200
C2349       C  0.65734514  0.79087059  0.67470174     0.01200
C2350       C  0.63473655  0.77354089  0.70521305     0.04000
C2351       C  0.61813662  0.74006010  0.70062578    -0.12100
C2352       C  0.62444251  0.72367303  0.66607509     0.23300
C2353       C  0.64766136  0.74094413  0.63658329    -0.12600
C2354       C  0.66411777  0.77445700  0.64092833     0.04700
C2355       C  0.60494448  0.68854567  0.65789125     0.27100
C2356       C  0.61349999  0.66830174  0.67150865    -0.13300
C2357       C  0.59469709  0.63498712  0.66305393     0.05200
C2358       C  0.56698459  0.62164208  0.64117044    -0.09300
C2359       C  0.55801760  0.64227153  0.63070643     0.06000
C2360       C  0.57730646  0.67544443  0.63705888    -0.13600
Br2361     Br  0.65602973  0.71873618  0.58848963    -0.05700
Br2362     Br  0.62704101  0.79552825  0.75459561    -0.00100
Br2363     Br  0.60651463  0.60803031  0.68531874     0.00400
Br2364     Br  0.56606777  0.70328562  0.61598229    -0.04100
Br2365     Br  0.69484748  0.79754643  0.59853099     0.00500
Br2366     Br  0.58565872  0.71669606  0.74007661    -0.03300
Br2367     Br  0.65119752  0.68628591  0.70129362    -0.04200
Br2368     Br  0.51928005  0.62647741  0.60916356    -0.00200
C2369       C  0.89868389  0.96292532  0.64978616     0.01200
C2370       C  0.87756186  0.93190189  0.63174435     0.04000
C2371       C  0.84904453  0.91718899  0.64638326    -0.12100
C2372       C  0.84138438  0.93458626  0.67625124     0.21900
C2373       C  0.86280367  0.96523817  0.69554954    -0.12600
C2374       C  0.89158345  0.97912044  0.68305391     0.04700
C2375       C  0.81055299  0.92205012  0.68302340     0.27100
C2376       C  0.79655622  0.93249595  0.65562434    -0.13300
C2377       C  0.76665310  0.91855258  0.65833515     0.05200
C2378       C  0.75050423  0.89364410  0.68826226    -0.09300
C2379       C  0.76503320  0.88454416  0.71760834     0.06000
C2380       C  0.79505294  0.89905145  0.71527380    -0.13600
Br2381     Br  0.85218753  0.98904863  0.73586539    -0.05700
Br2382     Br  0.88804933  0.41030616  0.58797361    -0.00100
Br2383     Br  0.74838254  0.93286293  0.61831301     0.00400
Br2384     Br  0.81522779  0.88746925  0.75587239    -0.04100
Br2385     Br  0.92087681  0.02169378  0.70766997     0.00500
Br2386     Br  0.82031235  0.87373240  0.62439820    -0.03300
Br2387     Br  0.81885793  0.46517220  0.61375303    -0.04200
Br2388     Br  0.74428722  0.85248866  0.76170293    -0.00200
C2389       C  0.59029287  0.97261895  0.63952856     0.01200
C2390       C  0.57478095  0.93957812  0.64534877     0.04000
C2391       C  0.58955151  0.92467011  0.65447269    -0.12100
C2392       C  0.62000683  0.94217953  0.65509104     0.23300
C2393       C  0.63559793  0.97497154  0.64815795    -0.12600
C2394       C  0.62089677  0.99035620  0.64196504     0.04700
C2395       C  0.63538817  0.92572135  0.66170022     0.27100
C2396       C  0.64010245  0.91932517  0.70702170    -0.13300
C2397       C  0.65231137  0.90138475  0.71294518     0.05200
C2398       C  0.66067651  0.89059974  0.67364451    -0.09300
C2399       C  0.65702908  0.89786106  0.62853052     0.06000
C2400       C  0.64466434  0.91559648  0.62257733    -0.13600
Br2401     Br  0.67709042  0.99823919  0.64441798    -0.05700
Br2402     Br  0.53322441  0.91423383  0.63992006    -0.00100
Br2403     Br  0.65760979  0.89137933  0.77470585     0.00400
Br2404     Br  0.64217380  0.92752564  0.56110137    -0.04100
Br2405     Br  0.64332924  0.53606555  0.63601860     0.00500
Br2406     Br  0.56801639  0.87981182  0.66458998    -0.03300
Br2407     Br  0.63157495  0.93681295  0.76108062    -0.04200
Br2408     Br  0.66929940  0.88359709  0.57495975    -0.00200
C2409       C  0.87784961  0.66178903  0.76305266     0.01200
C2410       C  0.89650863  0.67027424  0.80281377     0.04000
C2411       C  0.91105507  0.65487108  0.80918501    -0.12100
C2412       C  0.90731713  0.63108363  0.77568943     0.23300
C2413       C  0.88957843  0.62336695  0.73514484    -0.12600
C2414       C  0.87490797  0.63868816  0.72873131     0.04700
C2415       C  0.92035516  0.61263511  0.78494614     0.27100
C2416       C  0.94971472  0.62522970  0.77680451    -0.13300
C2417       C  0.96221947  0.60818252  0.78792679     0.05200
C2418       C  0.94528595  0.57830607  0.80731758    -0.09300
C2419       C  0.91578686  0.56595147  0.81542700     0.06000
C2420       C  0.90336103  0.58279107  0.80362341    -0.13600
Br2421     Br  0.88469753  0.59080258  0.68961941    -0.05700
Br2422     Br  0.90106936  0.70156232  0.85039657    -0.00100
Br2423     Br  0.00222597  0.62558725  0.77490174     0.00400
Br2424     Br  0.86277141  0.56497088  0.81312933    -0.04100
Br2425     Br  0.85116289  0.62837023  0.67257758     0.00500
Br2426     Br  0.93513806  0.66524182  0.86500202    -0.03300
Br2427     Br  0.97249129  0.66578347  0.74980266    -0.04200
Br2428     Br  0.89215938  0.52699580  0.84586632    -0.00200
C2429       C  0.86889173  0.75387356  0.75838990     0.01200
C2430       C  0.86894129  0.76862158  0.71803324     0.04000
C2431       C  0.88302025  0.80203704  0.71969823    -0.12100
C2432       C  0.89860964  0.82085823  0.76083370     0.23300
C2433       C  0.89823850  0.80585752  0.80114275    -0.12600
C2434       C  0.88208407  0.77249169  0.80057823     0.04700
C2435       C  0.91711802  0.85624879  0.76134924     0.27100
C2436       C  0.94722165  0.87146318  0.75910134    -0.13300
C2437       C  0.96541957  0.90474635  0.76728746     0.05200
C2438       C  0.95375234  0.92337364  0.77759146    -0.09300
C2439       C  0.92344713  0.90842986  0.77008654     0.06000
C2440       C  0.90515207  0.87481712  0.76521143    -0.13600
Br2441     Br  0.92137668  0.83084773  0.85638273    -0.05700
Br2442     Br  0.85040112  0.74310945  0.66036245    -0.00100
Br2443     Br  0.50600305  0.92466416  0.75765906     0.00400
Br2444     Br  0.86373113  0.85409904  0.76627925    -0.04100
Br2445     Br  0.87641725  0.75235761  0.85833107     0.00500
Br2446     Br  0.88141717  0.82201904  0.66561119    -0.03300
Br2447     Br  0.96351929  0.84633362  0.74603089    -0.04200
Br2448     Br  0.90665580  0.93287638  0.76057959    -0.00200
C2449       C  0.63234300  0.56239017  0.81335399     0.01200
C2450       C  0.65056527  0.59580963  0.82302689     0.04000
C2451       C  0.67982045  0.61224949  0.81128110    -0.12100
C2452       C  0.69139272  0.59530491  0.79198110     0.23300
C2453       C  0.67343341  0.56213948  0.78242053    -0.12600
C2454       C  0.64399626  0.54577997  0.79247666     0.04700
C2455       C  0.72259058  0.61229569  0.78233124     0.27100
C2456       C  0.73286168  0.62822452  0.74098960    -0.13300
C2457       C  0.76263618  0.64547773  0.73288662     0.05200
C2458       C  0.78222733  0.64666875  0.76596935    -0.09300
C2459       C  0.77170223  0.62956476  0.80643097     0.06000
C2460       C  0.74195832  0.61241496  0.81453445    -0.13600
Br2461     Br  0.68953438  0.53925006  0.75579653    -0.05700
Br2462     Br  0.63576163  0.61968364  0.85095426    -0.00100
Br2463     Br  0.77640506  0.66677192  0.67584377     0.00400
Br2464     Br  0.72767381  0.58911664  0.86992542    -0.04100
Br2465     Br  0.62040452  0.50030656  0.77968655     0.00500
Br2466     Br  0.70409109  0.65818416  0.82023172    -0.03300
Br2467     Br  0.70593593  0.62633328  0.69571019    -0.04200
Br2468     Br  0.79797412  0.63082900  0.85231758    -0.00200
C2469       C  0.94559426  0.57845157  0.55533341     0.01200
C2470       C  0.95943573  0.60350063  0.02488500     0.04000
C2471       C  0.94729941  0.62105027  0.01523784    -0.12100
C2472       C  0.92013251  0.61186504  0.53209610     0.23300
C2473       C  0.90453813  0.58446578  0.55694269    -0.12600
C2474       C  0.91749545  0.56840301  0.56989607     0.04700
C2475       C  0.90723033  0.63024723  0.52276746     0.27100
C2476       C  0.91060047  0.65371329  0.55657470    -0.13300
C2477       C  0.89581143  0.66881842  0.55023203     0.05200
C2478       C  0.87755550  0.66038898  0.50995033    -0.09300
C2479       C  0.87493625  0.63754352  0.97548745     0.06000
C2480       C  0.88974270  0.62248020  0.98197525    -0.13600
Br2481     Br  0.86456492  0.56789073  0.56999953    -0.05700
Br2482     Br  0.99384228  0.61309239  0.99344970    -0.00100
Br2483     Br  0.89942483  0.69971553  0.59821617     0.00400
Br2484     Br  0.88558139  0.59040800  0.93596424    -0.04100
Br2485     Br  0.89455948  0.53003578  0.60172742     0.00500
Br2486     Br  0.96746218  0.65740140  0.97812680    -0.03300
Br2487     Br  0.93495534  0.66442571  0.61215011    -0.04200
Br2488     Br  0.85170239  0.62727979  0.91886378    -0.00200
C2489       C  0.96151434  0.92566578  0.55554233     0.01200
C2490       C  0.95848987  0.90372458  0.58717682     0.04000
C2491       C  0.94318326  0.87108093  0.57338664    -0.12100
C2492       C  0.92689776  0.85958184  0.53070580     0.23300
C2493       C  0.92756107  0.88109148  0.50074435    -0.12600
C2494       C  0.94585287  0.91411747  0.51194387     0.04700
C2495       C  0.90893649  0.82482778  0.51792557     0.27100
C2496       C  0.92172340  0.80955287  0.49775669    -0.13300
C2497       C  0.90568326  0.77611324  0.99045351     0.05200
C2498       C  0.87646744  0.75740982  0.50435521    -0.09300
C2499       C  0.86335997  0.77350246  0.52232784     0.06000
C2500       C  0.87951324  0.80701064  0.52798701    -0.13600
Br2501     Br  0.90301437  0.86505780  0.94484837    -0.05700
Br2502     Br  0.97131661  0.91764635  0.65153248    -0.00100
Br2503     Br  0.92480047  0.75741580  0.96015036     0.00400
Br2504     Br  0.86129591  0.82889469  0.54940554    -0.04100
Br2505     Br  0.94954796  0.94284450  0.96666216     0.00500
Br2506     Br  0.94551489  0.84239964  0.61214595    -0.03300
Br2507     Br  0.96162666  0.83509032  0.98032835    -0.04200
Br2508     Br  0.82397054  0.75128696  0.54277785    -0.00200
C2509       C  0.78463419  0.65195037  0.50380151     0.01200
C2510       C  0.76714724  0.65614364  0.97300278     0.04000
C2511       C  0.73715365  0.63993247  0.97876163    -0.12100
C2512       C  0.72439851  0.61996567  0.51570276     0.23300
C2513       C  0.74164455  0.61542327  0.54624816    -0.12600
C2514       C  0.77162792  0.63118582  0.54026966     0.04700
C2515       C  0.69285068  0.60402759  0.52256707     0.27100
C2516       C  0.68191911  0.62154718  0.54243007    -0.13300
C2517       C  0.65209892  0.60632782  0.54930702     0.05200
C2518       C  0.63321982  0.57307745  0.53925944    -0.09300
C2519       C  0.64406400  0.55596568  0.51706722     0.06000
C2520       C  0.67367040  0.57155084  0.50810013    -0.13600
Br2521     Br  0.72417382  0.58811542  0.59708610    -0.05700
Br2522     Br  0.78388137  0.68367151  0.92222505    -0.00100
Br2523     Br  0.63696574  0.63161035  0.56914746     0.00400
Br2524     Br  0.68819106  0.54831267  0.47653773    -0.04100
Br2525     Br  0.79473185  0.62556766  0.58439918     0.00500
Br2526     Br  0.71313611  0.64494049  0.93621361    -0.03300
Br2527     Br  0.70793968  0.66639330  0.56088114    -0.04200
Br2528     Br  0.61933303  0.51077122  0.50150990    -0.00200
loop_ 
_geom_bond_atom_site_label_1 
_geom_bond_atom_site_label_2 
_geom_bond_distance 
_geom_bond_site_symmetry_2 
_ccdc_geom_bond_type 
C1            N2   1.355       .  A
C1            N6   1.358       .  A
C1          C266   1.475       .  S
N2            C3   1.356       .  A
C3            N4   1.358   1_554  A
C3          C286   1.500       .  S
N4            C5   1.359       .  A
C5            N6   1.359   1_556  A
C5          C297   1.485   1_556  S
C7            N8   1.359       .  A
C7           N12   1.360       .  A
C7          C197   1.483       .  S
N8            C9   1.359       .  A
C9           N10   1.357       .  A
C9          C246   1.477       .  S
N10          C11   1.355       .  A
C11          N12   1.361       .  A
C11         C217   1.473       .  S
C13          N14   1.356       .  A
C13          N18   1.358       .  A
C13         C186   1.471       .  S
N14          C15   1.357       .  A
C15          N16   1.356       .  A
C15         C166   1.480       .  S
N16          C17   1.356       .  A
C17          N18   1.360       .  A
C17         C137   1.478       .  S
C19          N20   1.361       .  A
C19          N24   1.366       .  A
C19         C126   1.516       .  S
N20          C21   1.360       .  A
C21          N22   1.359       .  A
C21          C86   1.510       .  S
N22          C23   1.359       .  A
C23          N24   1.365       .  A
C23         C106   1.489       .  S
C25         C306   1.486       .  S
C25          O40   1.263       .  A
C25          O27   1.260       .  A
Tb26         O48   2.379       .  S
Tb26         O30   2.368       .  S
Tb26         O47   2.340   1_545  S
Tb26        O681   2.324   1_545  S
Tb26        O664   2.360   1_545  S
Tb26       O1306   2.368       .  S
Tb26       O1301   2.376       .  S
Tb26       O1314   2.330       .  S
O27         Tb31   2.350       .  S
O28          C39   1.259       .  A
O28        Tb663   2.382       .  S
C29         C146   1.495       .  S
C29          O34   1.271       .  A
C29          O50   1.267       .  A
O30          C46   1.256       .  A
Tb31         O35   2.372       .  S
Tb31         O40   2.368       .  S
Tb31         O34   2.353       .  S
Tb31         O43   2.383       .  S
Tb31        O660   2.382       .  S
Tb31        O673   2.374   1_545  S
Tb31        O665   2.348   1_545  S
O32         C670   1.259       .  A
O32        Tb658   2.364       .  S
O33        C1300   1.273   1_455  A
O33        Tb663   2.349       .  S
O35          C45   1.276   1_554  A
C36         C277   1.481       .  S
C36          O49   1.266       .  A
C36        O1297   1.273       .  A
O37          C44   1.278   1_655  A
O37       Tb1290   2.376       .  S
C38         C789   1.461       .  S
C38          O47   1.256       .  A
C38         O664   1.259       .  A
C39         C177   1.493       .  S
C39          O41   1.258       .  A
O41        Tb663   2.373       .  S
O42          C45   1.276   1_654  A
O42       Tb1290   2.368       .  S
O43          C44   1.281       .  A
C44          C71   1.506       .  S
C45         C386   1.497       .  S
C46         C257   1.490       .  S
C46          O48   1.258       .  A
O49        Tb658   2.323       .  S
O50       Tb1290   2.330   1_455  S
C51         C237   1.486       .  S
C51          O66   1.260       .  A
C51          O53   1.260       .  A
Tb52         O74   2.356       .  S
Tb52         O56   2.386       .  S
Tb52         O73   2.399   1_545  S
Tb52        O707   2.341   1_545  S
Tb52        O690   2.358       .  S
Tb52       O1332   2.405       .  S
Tb52       O1327   2.380       .  S
Tb52       O1340   2.340       .  S
O53         Tb57   2.367       .  S
O54          C65   1.262       .  A
O54        Tb689   2.378       .  S
C55          C77   1.484       .  S
C55          O60   1.274       .  A
C55          O76   1.270       .  A
O56          C72   1.259       .  A
Tb57         O61   2.364       .  S
Tb57         O66   2.358       .  S
Tb57         O60   2.362       .  S
Tb57         O69   2.359       .  S
Tb57        O686   2.379   1_545  S
Tb57        O699   2.382   1_545  S
Tb57        O691   2.357   1_445  S
O58         C696   1.256       .  A
O58        Tb684   2.357       .  S
O59        C1326   1.274       .  A
O59        Tb689   2.358   1_655  S
O61          C71   1.277       .  A
C62         C226   1.507       .  S
C62          O75   1.268       .  A
C62        O1323   1.274       .  A
O63          C70   1.279   1_655  A
O63       Tb1316   2.380       .  S
C64         C729   1.512       .  S
C64          O73   1.264       .  A
C64         O690   1.256   1_565  A
C65         C117   1.512       .  S
C65          O67   1.258       .  A
O67        Tb689   2.382       .  S
O68          C71   1.285   1_655  A
O68       Tb1316   2.405       .  S
O69          C70   1.275       .  A
C70         C361   1.497       .  S
C72         C206   1.490       .  S
C72          O74   1.256       .  A
O75        Tb684   2.342       .  S
O76       Tb1316   2.340   1_455  S
C77          C78   1.412       .  A
C77          C82   1.410       .  A
C78          C79   1.410       .  A
C78         Br90   1.924       .  S
C79          C80   1.409       .  A
C79         Br94   1.926       .  S
C80          C83   1.492       .  S
C80          C81   1.407       .  A
C81          C82   1.407       .  A
C81         Br89   1.923       .  S
C82         Br93   1.925       .  S
C83          C84   1.405       .  A
C83          C88   1.405       .  A
C84          C85   1.411       .  A
C84         Br95   1.935       .  S
C85          C86   1.426       .  A
C85         Br91   1.935       .  S
C86          C87   1.428       .  A
C87          C88   1.413       .  A
C87        Br412   1.933       .  S
C88         Br92   1.934       .  S
Br96        C403   1.933       .  S
C97         C696   1.511       .  S
C97          C98   1.418       .  A
C97         C734   1.419       .  A
C98          C99   1.416       .  A
C98        Br110   1.917       .  S
C99         C100   1.409       .  A
C99        Br114   1.930       .  S
C100        C103   1.499       .  S
C100        C101   1.406       .  A
C101        C734   1.412       .  A
C101       Br741   1.930       .  S
C102        C729   1.420       .  A
C102        C733   1.413       .  A
C102       Br113   1.922   1_565  S
C103        C104   1.412       .  A
C103        C108   1.409       .  A
C104        C105   1.414       .  A
C104       Br115   1.928       .  S
C105        C106   1.411       .  A
C105       Br111   1.928       .  S
C106        C107   1.412       .  A
C107        C108   1.413       .  A
C107       Br432   1.926       .  S
C108       Br428   1.924       .  S
Br109       C733   1.930       .  S
Br112       C424   1.924   1_554  S
Br116       C423   1.926   1_554  S
C117        C118   1.424       .  A
C117        C122   1.421       .  A
C118        C119   1.410       .  A
C118       Br130   1.920       .  S
C119        C120   1.403       .  A
C119       Br134   1.934       .  S
C120        C123   1.503       .  S
C120        C121   1.412       .  A
C121        C122   1.417       .  A
C121       Br129   1.921       .  S
C122       Br133   1.933       .  S
C123        C124   1.408       .  A
C123        C128   1.413       .  A
C124        C125   1.416       .  A
C124       Br135   1.930       .  S
C125        C126   1.427       .  A
C125       Br131   1.935       .  S
C126        C127   1.424       .  A
C127        C128   1.415       .  A
C127       Br136   1.933       .  S
C128       Br132   1.936       .  S
C137        C138   1.410       .  A
C137        C142   1.413       .  A
C138        C139   1.405       .  A
C138       Br150   1.930       .  S
C139        C140   1.412       .  A
C139       Br154   1.934       .  S
C140        C143   1.484       .  S
C140        C141   1.410       .  A
C141        C142   1.407       .  A
C141       Br149   1.932       .  S
C142       Br153   1.929       .  S
C143        C144   1.410       .  A
C143        C148   1.405       .  A
C144        C145   1.410       .  A
C144       Br155   1.931       .  S
C145        C146   1.419       .  A
C145       Br151   1.936       .  S
C146        C147   1.420       .  A
C147        C148   1.403       .  A
C147       Br156   1.919       .  S
C148       Br152   1.940       .  S
C157        C670   1.461       .  S
C157        C158   1.403       .  A
C157        C162   1.407       .  A
C158        C159   1.405       .  A
C158       Br802   1.923       .  S
C159        C160   1.411       .  A
C159       Br174   1.929       .  S
C160        C163   1.478       .  S
C160        C161   1.407       .  A
C161        C162   1.402       .  A
C161       Br169   1.927       .  S
C162       Br173   1.928       .  S
C163        C164   1.408       .  A
C163        C168   1.404       .  A
C164        C165   1.404       .  A
C164       Br807   1.933       .  S
C165        C166   1.417       .  A
C165       Br171   1.934       .  S
C166        C167   1.416       .  A
C167        C168   1.406       .  A
C167       Br176   1.932       .  S
C168       Br172   1.930       .  S
Br170       C790   1.924       .  S
Br175       C796   1.933       .  S
C177        C178   1.413       .  A
C177        C182   1.416       .  A
C178        C179   1.411       .  A
C178       Br190   1.924       .  S
C179        C180   1.410       .  A
C179       Br194   1.931       .  S
C180        C183   1.495       .  S
C180        C181   1.409       .  A
C181        C182   1.413       .  A
C181       Br189   1.930       .  S
C182       Br825   1.927       .  S
C183        C184   1.412       .  A
C183        C188   1.412       .  A
C184        C185   1.409       .  A
C184       Br195   1.917       .  S
C185        C186   1.405       .  A
C185       Br191   1.931       .  S
C186        C187   1.406       .  A
C187        C188   1.407       .  A
C187       Br196   1.930       .  S
C188       Br192   1.921       .  S
Br193       C814   1.927   1_545  S
C197        C198   1.413       .  A
C197        C202   1.412       .  A
C198        C199   1.407       .  A
C198       Br210   1.923       .  S
C199        C200   1.407       .  A
C199       Br214   1.930       .  S
C200        C203   1.487       .  S
C200        C201   1.408       .  A
C201        C202   1.410       .  A
C201       Br209   1.925       .  S
C202       Br213   1.929       .  S
C203        C204   1.409       .  A
C203        C208   1.406       .  A
C204        C205   1.413       .  A
C204       Br215   1.930       .  S
C205        C206   1.416       .  A
C205       Br211   1.930       .  S
C206        C207   1.418       .  A
C207        C208   1.405       .  A
C207       Br216   1.927       .  S
C208       Br212   1.936       .  S
C217        C218   1.408       .  A
C217        C222   1.406       .  A
C218        C219   1.410       .  A
C218       Br230   1.928       .  S
C219        C220   1.411       .  A
C219       Br234   1.922       .  S
C220        C223   1.489       .  S
C220        C221   1.410       .  A
C221        C222   1.403       .  A
C221       Br229   1.924       .  S
C222       Br233   1.927       .  S
C223        C224   1.405       .  A
C223        C228   1.410       .  A
C224        C225   1.405       .  A
C224       Br235   1.934       .  S
C225        C226   1.417       .  A
C225      Br1495   1.921       .  S
C226        C227   1.422       .  A
C227        C228   1.414       .  A
C227       Br236   1.933       .  S
C228       Br232   1.931       .  S
Br231      C1489   1.921   1_455  S
C237        C238   1.416       .  A
C237        C242   1.414       .  A
C238        C239   1.409       .  A
C238       Br250   1.927       .  S
C239        C240   1.408       .  A
C239       Br254   1.932       .  S
C240        C243   1.483       .  S
C240        C241   1.404       .  A
C241        C242   1.405       .  A
C241       Br249   1.927       .  S
C242       Br253   1.923       .  S
C243        C244   1.408       .  A
C243        C248   1.409       .  A
C244        C245   1.407       .  A
C244       Br255   1.931       .  S
C245        C246   1.411       .  A
C245       Br251   1.927       .  S
C246        C247   1.411       .  A
C247        C248   1.406       .  A
C247       Br256   1.929       .  S
C248       Br252   1.929       .  S
C257        C262   1.419       .  A
C257        C574   1.418       .  A
C258        C259   1.409       .  A
C258        C573   1.418       .  A
C258       Br270   1.927       .  S
C259        C576   1.405       .  A
C259       Br274   1.929       .  S
C260        C263   1.479       .  S
C260        C261   1.403       .  A
C260        C575   1.405       .  A
C261        C262   1.405       .  A
C261       Br269   1.936       .  S
C262       Br273   1.924       .  S
C263        C264   1.408       .  A
C263        C584   1.406   1_554  A
C264        C265   1.406       .  A
C264       Br275   1.930       .  S
C265        C266   1.413       .  A
C265       Br271   1.933       .  S
C266        C583   1.411   1_554  A
C267        C268   1.406       .  A
C267        C582   1.411       .  A
C267       Br276   1.925       .  S
C268        C579   1.406       .  A
C268       Br272   1.929       .  S
C277        C278   1.409       .  A
C277        C282   1.414       .  A
C278        C279   1.402       .  A
C278       Br290   1.918       .  S
C279        C280   1.406       .  A
C279       Br294   1.930       .  S
C280        C283   1.481       .  S
C280        C281   1.405       .  A
C281        C282   1.406       .  A
C281       Br605   1.920   1_554  S
C282       Br609   1.927   1_554  S
C283        C284   1.402   1_554  A
C283        C288   1.404       .  A
C284        C601   1.407       .  A
C284       Br611   1.936       .  S
C285        C600   1.407       .  A
C285        C602   1.427       .  A
C285       Br291   1.935       .  S
C286        C287   1.427       .  A
C286        C601   1.427   1_554  A
C287        C288   1.407       .  A
C287       Br296   1.938       .  S
C288       Br292   1.933       .  S
Br289       C597   1.920       .  S
Br293       C598   1.927       .  S
Br295       C600   1.936       .  S
C297        C302   1.417       .  A
C297        C614   1.414   1_554  A
C298        C299   1.408       .  A
C298        C613   1.414       .  A
C298       Br310   1.931       .  S
C299        C616   1.406       .  A
C299       Br314   1.925       .  S
C300        C303   1.488       .  S
C300        C301   1.409       .  A
C300        C615   1.406   1_554  A
C301        C302   1.409       .  A
C301       Br309   1.931       .  S
C302       Br313   1.934       .  S
C303        C304   1.410       .  A
C303        C308   1.408       .  A
C304        C305   1.408       .  A
C304       Br315   1.932       .  S
C305        C306   1.413       .  A
C305       Br311   1.928       .  S
C306        C307   1.415       .  A
C307        C308   1.408       .  A
C307       Br316   1.925       .  S
C308       Br312   1.930   1_554  S
C317        N318   1.355       .  A
C317        N322   1.358       .  A
C317        C582   1.475       .  S
N318        C319   1.356       .  A
C319        N320   1.358       .  A
C319        C602   1.500       .  S
N320        C321   1.359       .  A
C321        N322   1.359       .  A
C321        C613   1.485       .  S
C323        N324   1.359       .  A
C323        N328   1.360       .  A
C323        C513   1.483       .  S
N324        C325   1.359       .  A
C325        N326   1.357       .  A
C325        C562   1.477       .  S
N326        C327   1.355       .  A
C327        N328   1.361       .  A
C327        C533   1.473       .  S
C329        N330   1.356       .  A
C329        N334   1.358       .  A
C329        C502   1.471       .  S
N330        C331   1.357       .  A
C331        N332   1.356       .  A
C331        C482   1.480       .  S
N332        C333   1.356       .  A
C333        N334   1.360       .  A
C333        C453   1.478       .  S
C335        N336   1.361       .  A
C335        N340   1.366       .  A
C335        C442   1.516       .  S
N336        C337   1.360       .  A
C337        N338   1.359       .  A
C337        C402   1.510       .  S
N338        C339   1.359       .  A
C339        N340   1.365       .  A
C339        C422   1.489       .  S
C341        C622   1.486       .  S
C341        O356   1.263       .  A
C341        O343   1.260       .  A
Tb342       O364   2.379       .  S
Tb342       O997   2.324   1_545  S
Tb342       O980   2.360   1_545  S
Tb342      O1622   2.368       .  S
Tb342      O1617   2.376       .  S
Tb342       O346   2.368       .  S
Tb342      O1630   2.330       .  S
Tb342       O363   2.340   1_545  S
O343       Tb347   2.350       .  S
O344        C355   1.259       .  A
O344       Tb979   2.382       .  S
C345        C462   1.495       .  S
C345        O350   1.271       .  A
C345        O366   1.267       .  A
O346        C362   1.256       .  A
Tb347       O976   2.382       .  S
Tb347       O351   2.372       .  S
Tb347       O356   2.368       .  S
Tb347       O350   2.353       .  S
Tb347       O989   2.374   1_545  S
Tb347       O359   2.383       .  S
Tb347       O981   2.348   1_545  S
O348        C986   1.259       .  A
O348       Tb974   2.364       .  S
O349       C1616   1.273   1_455  A
O349       Tb979   2.349       .  S
O351        C361   1.276       .  A
C352        C593   1.481       .  S
C352       O1613   1.273       .  A
C352        O365   1.266       .  A
O353        C360   1.278   1_655  A
O353      Tb1606   2.376       .  S
C354       C1105   1.461       .  S
C354        O980   1.259       .  A
C354        O363   1.256       .  A
C355        C493   1.493       .  S
C355        O357   1.258       .  A
O357       Tb979   2.373       .  S
O358        C361   1.276   1_655  A
O358      Tb1606   2.368       .  S
O359        C360   1.281       .  A
C360        C387   1.506       .  S
C362        C573   1.490       .  S
C362        O364   1.258       .  A
O365       Tb974   2.323       .  S
O366      Tb1606   2.330   1_455  S
C367        C553   1.486       .  S
C367        O382   1.260       .  A
C367        O369   1.260       .  A
Tb368       O390   2.356       .  S
Tb368      O1023   2.341   1_545  S
Tb368      O1006   2.358       .  S
Tb368      O1648   2.405       .  S
Tb368      O1643   2.380       .  S
Tb368       O372   2.386       .  S
Tb368      O1656   2.340       .  S
Tb368       O389   2.399   1_545  S
O369       Tb373   2.367       .  S
O370        C381   1.262       .  A
O370      Tb1005   2.378       .  S
C371        C393   1.484       .  S
C371        O376   1.274       .  A
C371        O392   1.270       .  A
O372        C388   1.259       .  A
Tb373      O1002   2.379   1_545  S
Tb373       O377   2.364       .  S
Tb373       O382   2.358       .  S
Tb373       O376   2.362       .  S
Tb373      O1015   2.382   1_545  S
Tb373       O385   2.359       .  S
Tb373      O1007   2.357   1_445  S
O374       C1012   1.256       .  A
O374      Tb1000   2.357       .  S
O375       C1642   1.274       .  A
O375      Tb1005   2.358   1_655  S
O377        C387   1.277       .  A
C378        C542   1.507       .  S
C378       O1639   1.274       .  A
C378        O391   1.268       .  A
O379        C386   1.279   1_655  A
O379      Tb1632   2.380       .  S
C380       C1045   1.512       .  S
C380       O1006   1.256   1_565  A
C380        O389   1.264       .  A
C381        C433   1.512       .  S
C381        O383   1.258       .  A
O383      Tb1005   2.382       .  S
O384        C387   1.285   1_655  A
O384      Tb1632   2.405       .  S
O385        C386   1.275       .  A
C388        C522   1.490       .  S
C388        O390   1.256       .  A
O391      Tb1000   2.342       .  S
O392      Tb1632   2.340   1_455  S
C393        C394   1.412       .  A
C393        C398   1.410       .  A
C394        C395   1.410       .  A
C394       Br406   1.924       .  S
C395        C396   1.409       .  A
C395       Br410   1.926   1_556  S
C396        C399   1.492       .  S
C396        C397   1.407       .  A
C397        C398   1.407       .  A
C397       Br405   1.923       .  S
C398       Br409   1.925       .  S
C399        C400   1.405       .  A
C399        C404   1.405       .  A
C400        C401   1.411       .  A
C400       Br411   1.935       .  S
C401        C402   1.426       .  A
C401       Br407   1.935       .  S
C402        C403   1.428       .  A
C403        C404   1.413       .  A
C404       Br408   1.934       .  S
C413       C1012   1.511       .  S
C413        C414   1.418       .  A
C413       C1050   1.419       .  A
C414        C415   1.416       .  A
C414       Br426   1.917       .  S
C415        C416   1.409       .  A
C415       Br430   1.930       .  S
C416        C419   1.499       .  S
C416        C417   1.406       .  A
C417       C1050   1.412       .  A
C417      Br1057   1.930       .  S
C418       C1045   1.420       .  A
C418       C1049   1.413       .  A
C418       Br429   1.922   1_565  S
C419        C420   1.412       .  A
C419        C424   1.409       .  A
C420        C421   1.414       .  A
C420       Br431   1.928       .  S
C421        C422   1.411       .  A
C421       Br427   1.928       .  S
C422        C423   1.412       .  A
C423        C424   1.413       .  A
Br425      C1049   1.930       .  S
C433        C434   1.424       .  A
C433        C438   1.421       .  A
C434        C435   1.410       .  A
C434       Br446   1.920       .  S
C435        C436   1.403       .  A
C435       Br450   1.934       .  S
C436        C439   1.503       .  S
C436        C437   1.412       .  A
C437        C438   1.417       .  A
C437       Br445   1.921   1_556  S
C438       Br449   1.933       .  S
C439        C440   1.408       .  A
C439        C444   1.413       .  A
C440        C441   1.416       .  A
C440       Br451   1.930       .  S
C441        C442   1.427       .  A
C441       Br447   1.935   1_556  S
C442        C443   1.424       .  A
C443        C444   1.415       .  A
C443       Br452   1.933       .  S
C444       Br448   1.936       .  S
C453        C454   1.410       .  A
C453        C458   1.413       .  A
C454        C455   1.405       .  A
C454       Br466   1.930       .  S
C455        C456   1.412       .  A
C455       Br470   1.934       .  S
C456        C459   1.484       .  S
C456        C457   1.410       .  A
C457        C458   1.407       .  A
C457       Br465   1.932       .  S
C458       Br469   1.929       .  S
C459        C460   1.410       .  A
C459        C464   1.405       .  A
C460        C461   1.410       .  A
C460       Br471   1.931       .  S
C461        C462   1.419       .  A
C461       Br467   1.936       .  S
C462        C463   1.420       .  A
C463        C464   1.403       .  A
C463       Br472   1.919       .  S
C464       Br468   1.940       .  S
C473        C986   1.461       .  S
C473        C474   1.403       .  A
C473        C478   1.407       .  A
C474        C475   1.405       .  A
C474      Br1118   1.923       .  S
C475        C476   1.411       .  A
C475       Br490   1.929       .  S
C476        C479   1.478       .  S
C476        C477   1.407       .  A
C477        C478   1.402       .  A
C477       Br485   1.927       .  S
C478       Br489   1.928       .  S
C479        C480   1.408       .  A
C479        C484   1.404       .  A
C480        C481   1.404       .  A
C480      Br1123   1.933       .  S
C481        C482   1.417       .  A
C481       Br487   1.934       .  S
C482        C483   1.416       .  A
C483        C484   1.406       .  A
C483       Br492   1.932       .  S
C484       Br488   1.930       .  S
Br486      C1106   1.924       .  S
Br491      C1112   1.933       .  S
C493        C494   1.413       .  A
C493        C498   1.416       .  A
C494        C495   1.411       .  A
C494       Br506   1.924       .  S
C495        C496   1.410       .  A
C495       Br510   1.931       .  S
C496        C499   1.495       .  S
C496        C497   1.409       .  A
C497        C498   1.413       .  A
C497       Br505   1.930       .  S
C498      Br1141   1.927       .  S
C499        C500   1.412       .  A
C499        C504   1.412       .  A
C500        C501   1.409       .  A
C500       Br511   1.917       .  S
C501        C502   1.405       .  A
C501       Br507   1.931       .  S
C502        C503   1.406       .  A
C503        C504   1.407       .  A
C503       Br512   1.930       .  S
C504       Br508   1.921       .  S
Br509      C1130   1.927   1_545  S
C513        C514   1.413       .  A
C513        C518   1.412       .  A
C514        C515   1.407       .  A
C514       Br526   1.923       .  S
C515        C516   1.407       .  A
C515       Br530   1.930       .  S
C516        C519   1.487       .  S
C516        C517   1.408       .  A
C517        C518   1.410       .  A
C517       Br525   1.925       .  S
C518       Br529   1.929       .  S
C519        C520   1.409       .  A
C519        C524   1.406       .  A
C520        C521   1.413       .  A
C520       Br531   1.930       .  S
C521        C522   1.416       .  A
C521       Br527   1.930       .  S
C522        C523   1.418       .  A
C523        C524   1.405       .  A
C523       Br532   1.927       .  S
C524       Br528   1.936       .  S
C533        C534   1.408       .  A
C533        C538   1.406       .  A
C534        C535   1.410       .  A
C534       Br546   1.928       .  S
C535        C536   1.411       .  A
C535       Br550   1.922       .  S
C536        C539   1.489       .  S
C536        C537   1.410       .  A
C537        C538   1.403       .  A
C537       Br545   1.924       .  S
C538       Br549   1.927       .  S
C539        C540   1.405       .  A
C539        C544   1.410       .  A
C540        C541   1.405       .  A
C540       Br551   1.934       .  S
C541        C542   1.417       .  A
C541      Br1811   1.921       .  S
C542        C543   1.422       .  A
C543        C544   1.414       .  A
C543       Br552   1.933       .  S
C544       Br548   1.931       .  S
Br547      C1805   1.921   1_455  S
C553        C554   1.416       .  A
C553        C558   1.414       .  A
C554        C555   1.409       .  A
C554       Br566   1.927       .  S
C555        C556   1.408       .  A
C555       Br570   1.932       .  S
C556        C559   1.483       .  S
C556        C557   1.404       .  A
C557        C558   1.405       .  A
C557       Br565   1.927       .  S
C558       Br569   1.923       .  S
C559        C560   1.408       .  A
C559        C564   1.409       .  A
C560        C561   1.407       .  A
C560       Br571   1.931       .  S
C561        C562   1.411       .  A
C561       Br567   1.927       .  S
C562        C563   1.411       .  A
C563        C564   1.406       .  A
C563       Br572   1.929       .  S
C564       Br568   1.929       .  S
C573        C578   1.419       .  A
C574        C575   1.409       .  A
C574       Br586   1.927   1_554  S
C575       Br590   1.929   1_554  S
C576        C579   1.479       .  S
C576        C577   1.403       .  A
C577        C578   1.405       .  A
C577       Br585   1.936       .  S
C578       Br589   1.924       .  S
C579        C580   1.408       .  A
C580        C581   1.406       .  A
C580       Br591   1.930       .  S
C581        C582   1.413       .  A
C581       Br587   1.933       .  S
C583        C584   1.406       .  A
C583       Br592   1.925       .  S
C584       Br588   1.929       .  S
C593        C594   1.409       .  A
C593        C598   1.414       .  A
C594        C595   1.402       .  A
C594       Br606   1.918       .  S
C595        C596   1.406       .  A
C595       Br610   1.930       .  S
C596        C599   1.481       .  S
C596        C597   1.405       .  A
C597        C598   1.406       .  A
C599        C600   1.402       .  A
C599        C604   1.404       .  A
C601       Br607   1.935       .  S
C602        C603   1.427       .  A
C603        C604   1.407       .  A
C603       Br612   1.938       .  S
C604       Br608   1.933       .  S
C613        C618   1.417       .  A
C614        C615   1.408       .  A
C614       Br626   1.931       .  S
C615       Br630   1.925       .  S
C616        C619   1.488       .  S
C616        C617   1.409       .  A
C617        C618   1.409       .  A
C617       Br625   1.931       .  S
C618       Br629   1.934       .  S
C619        C620   1.410       .  A
C619        C624   1.408       .  A
C620        C621   1.408       .  A
C620       Br631   1.932       .  S
C621        C622   1.413       .  A
C621       Br627   1.928       .  S
C622        C623   1.415       .  A
C623        C624   1.408       .  A
C623       Br632   1.925       .  S
C624       Br628   1.930       .  S
C633        N634   1.355       .  A
C633        N638   1.357       .  A
C633        C898   1.475       .  S
N634        C635   1.356       .  A
C635        N636   1.358   1_554  A
C635        C918   1.501       .  S
N636        C637   1.358   1_556  A
C637        N638   1.358       .  A
C637        C929   1.485       .  S
C639        N640   1.359       .  A
C639        N644   1.360       .  A
C639        C829   1.483       .  S
N640        C641   1.359       .  A
C641        N642   1.357       .  A
C641        C878   1.478       .  S
N642        C643   1.356       .  A
C643        N644   1.361       .  A
C643        C849   1.474       .  S
C645        N646   1.356       .  A
C645        N650   1.358       .  A
C645        C818   1.470       .  S
N646        C647   1.357       .  A
C647        N648   1.356       .  A
C647        C798   1.480       .  S
N648        C649   1.355       .  A
C649        N650   1.359       .  A
C649        C769   1.477       .  S
C651        N652   1.361       .  A
C651        N656   1.367       .  A
C651        C758   1.516       .  S
N652        C653   1.360       .  A
C653        N654   1.359       .  A
C653        C718   1.509       .  S
N654        C655   1.359       .  A
C655        N656   1.365       .  A
C655        C738   1.490       .  S
C657        C938   1.488       .  S
C657        O672   1.263       .  A
C657        O659   1.260       .  A
Tb658       O680   2.378       .  S
Tb658      O1938   2.369       .  S
Tb658      O1933   2.374       .  S
Tb658       O662   2.368       .  S
Tb658      O1946   2.331       .  S
Tb658       O679   2.339       .  S
O659       Tb663   2.351       .  S
O660        C671   1.259   1_545  A
C661        C778   1.493       .  S
C661        O666   1.271       .  A
C661        O682   1.267       .  A
O662        C678   1.257       .  A
Tb663       O667   2.372       .  S
Tb663       O672   2.369       .  S
Tb663       O666   2.353       .  S
Tb663       O675   2.384       .  S
O665       C1932   1.273   1_455  A
O667        C677   1.277   1_554  A
C668        C909   1.481       .  S
C668       O1929   1.273       .  A
C668        O681   1.266       .  A
O669        C676   1.278   1_655  A
O669      Tb1922   2.374       .  S
C670        O679   1.255       .  A
C671        C809   1.493       .  S
C671        O673   1.258       .  A
O674        C677   1.276   1_654  A
O674      Tb1922   2.369       .  S
O675        C676   1.281       .  A
C676        C703   1.505       .  S
C677       C1018   1.497       .  S
C678        C889   1.490       .  S
C678        O680   1.258       .  A
O682      Tb1922   2.331   1_455  S
C683        C869   1.486       .  S
C683        O698   1.261       .  A
C683        O685   1.260       .  A
Tb684       O706   2.357       .  S
Tb684      O1964   2.405       .  S
Tb684      O1959   2.381       .  S
Tb684       O688   2.388       .  S
Tb684      O1972   2.339       .  S
Tb684       O705   2.398       .  S
O685       Tb689   2.366       .  S
O686        C697   1.262       .  A
C687        C709   1.483       .  S
C687        O692   1.274       .  A
C687        O708   1.269       .  A
O688        C704   1.259       .  A
Tb689       O693   2.363       .  S
Tb689       O698   2.357       .  S
Tb689       O692   2.361       .  S
Tb689       O701   2.358       .  S
O691       C1958   1.274       .  A
O693        C703   1.277       .  A
C694        C858   1.507       .  S
C694       O1955   1.274       .  A
C694        O707   1.268       .  A
O695        C702   1.280   1_655  A
O695      Tb1948   2.381       .  S
C696        O705   1.264       .  A
C697        C749   1.512       .  S
C697        O699   1.259       .  A
O700        C703   1.285   1_655  A
O700      Tb1948   2.405       .  S
O701        C702   1.275       .  A
C702        C993   1.497       .  S
C704        C838   1.491       .  S
C704        O706   1.256       .  A
O708      Tb1948   2.339   1_455  S
C709        C710   1.411       .  A
C709        C714   1.409       .  A
C710        C711   1.410       .  A
C710       Br722   1.924       .  S
C711        C712   1.409       .  A
C711       Br726   1.926       .  S
C712        C715   1.491       .  S
C712        C713   1.407       .  A
C713        C714   1.407       .  A
C713       Br721   1.923       .  S
C714       Br725   1.925       .  S
C715        C716   1.405       .  A
C715        C720   1.405       .  A
C716        C717   1.411       .  A
C716       Br727   1.935       .  S
C717        C718   1.426       .  A
C717       Br723   1.935       .  S
C718        C719   1.428       .  A
C719        C720   1.413       .  A
C719      Br1044   1.933       .  S
C720       Br724   1.934       .  S
Br728      C1035   1.933       .  S
C729        C730   1.418       .  A
C730        C731   1.416       .  A
C730       Br742   1.918       .  S
C731        C732   1.409       .  A
C731       Br746   1.930       .  S
C732        C735   1.501       .  S
C732        C733   1.407       .  A
C734       Br745   1.920       .  S
C735        C736   1.412       .  A
C735        C740   1.410       .  A
C736        C737   1.414       .  A
C736       Br747   1.927       .  S
C737        C738   1.411       .  A
C737       Br743   1.928       .  S
C738        C739   1.412       .  A
C739        C740   1.413       .  A
C739      Br1064   1.926       .  S
C740      Br1060   1.923       .  S
Br744      C1056   1.923   1_554  S
Br748      C1055   1.926   1_554  S
C749        C750   1.424       .  A
C749        C754   1.421       .  A
C750        C751   1.410       .  A
C750       Br762   1.920       .  S
C751        C752   1.403       .  A
C751       Br766   1.934       .  S
C752        C755   1.504       .  S
C752        C753   1.412       .  A
C753        C754   1.417       .  A
C753       Br761   1.921       .  S
C754       Br765   1.933       .  S
C755        C756   1.408       .  A
C755        C760   1.412       .  A
C756        C757   1.416       .  A
C756       Br767   1.930       .  S
C757        C758   1.427       .  A
C757       Br763   1.935       .  S
C758        C759   1.424       .  A
C759        C760   1.415       .  A
C759       Br768   1.933       .  S
C760       Br764   1.936       .  S
C769        C770   1.410       .  A
C769        C774   1.413       .  A
C770        C771   1.405       .  A
C770       Br782   1.930       .  S
C771        C772   1.412       .  A
C771       Br786   1.934       .  S
C772        C775   1.483       .  S
C772        C773   1.410       .  A
C773        C774   1.406       .  A
C773       Br781   1.932       .  S
C774       Br785   1.930       .  S
C775        C776   1.410       .  A
C775        C780   1.405       .  A
C776        C777   1.410       .  A
C776       Br787   1.931       .  S
C777        C778   1.418       .  A
C777       Br783   1.935       .  S
C778        C779   1.419       .  A
C779        C780   1.402       .  A
C779       Br788   1.917       .  S
C780       Br784   1.940       .  S
C789        C790   1.403       .  A
C789        C794   1.407       .  A
C790        C791   1.405       .  A
C791        C792   1.411       .  A
C791       Br806   1.929       .  S
C792        C795   1.477       .  S
C792        C793   1.406       .  A
C793        C794   1.402       .  A
C793       Br801   1.926       .  S
C794       Br805   1.928   1_565  S
C795        C796   1.408       .  A
C795        C800   1.404       .  A
C796        C797   1.404       .  A
C797        C798   1.417       .  A
C797       Br803   1.935       .  S
C798        C799   1.417       .  A
C799        C800   1.405       .  A
C799       Br808   1.932       .  S
C800       Br804   1.930       .  S
C809        C810   1.413       .  A
C809        C814   1.416       .  A
C810        C811   1.411       .  A
C810       Br822   1.923       .  S
C811        C812   1.410       .  A
C811       Br826   1.931       .  S
C812        C815   1.495       .  S
C812        C813   1.409       .  A
C813        C814   1.413       .  A
C813       Br821   1.930       .  S
C815        C816   1.412       .  A
C815        C820   1.412       .  A
C816        C817   1.408       .  A
C816       Br827   1.918       .  S
C817        C818   1.405       .  A
C817       Br823   1.931       .  S
C818        C819   1.406       .  A
C819        C820   1.406       .  A
C819       Br828   1.930       .  S
C820       Br824   1.921       .  S
C829        C830   1.413       .  A
C829        C834   1.412       .  A
C830        C831   1.407       .  A
C830       Br842   1.922       .  S
C831        C832   1.407       .  A
C831       Br846   1.930       .  S
C832        C835   1.487       .  S
C832        C833   1.408       .  A
C833        C834   1.410       .  A
C833       Br841   1.924       .  S
C834       Br845   1.929       .  S
C835        C836   1.409       .  A
C835        C840   1.406       .  A
C836        C837   1.413       .  A
C836       Br847   1.930       .  S
C837        C838   1.416       .  A
C837       Br843   1.930       .  S
C838        C839   1.418       .  A
C839        C840   1.405       .  A
C839       Br848   1.926       .  S
C840       Br844   1.936       .  S
C849        C850   1.409       .  A
C849        C854   1.406       .  A
C850        C851   1.410       .  A
C850       Br862   1.927       .  S
C851        C852   1.411       .  A
C851       Br866   1.923       .  S
C852        C855   1.489       .  S
C852        C853   1.410       .  A
C853        C854   1.403       .  A
C853       Br861   1.924       .  S
C854       Br865   1.926       .  S
C855        C856   1.405       .  A
C855        C860   1.409       .  A
C856        C857   1.405       .  A
C856       Br867   1.934       .  S
C857        C858   1.417       .  A
C857      Br2127   1.922       .  S
C858        C859   1.422       .  A
C859        C860   1.413       .  A
C859       Br868   1.933       .  S
C860       Br864   1.930       .  S
Br863      C2121   1.922   1_455  S
C869        C870   1.415       .  A
C869        C874   1.414       .  A
C870        C871   1.409       .  A
C870       Br882   1.926       .  S
C871        C872   1.408       .  A
C871       Br886   1.932       .  S
C872        C875   1.483       .  S
C872        C873   1.404       .  A
C873        C874   1.405       .  A
C873       Br881   1.927       .  S
C874       Br885   1.922       .  S
C875        C876   1.408       .  A
C875        C880   1.409       .  A
C876        C877   1.407       .  A
C876       Br887   1.931       .  S
C877        C878   1.411       .  A
C877       Br883   1.927       .  S
C878        C879   1.412       .  A
C879        C880   1.406       .  A
C879       Br888   1.929       .  S
C880       Br884   1.930       .  S
C889       C1206   1.418       .  A
C889        C894   1.419       .  A
C890       C1205   1.418       .  A
C890        C891   1.408       .  A
C890       Br902   1.928       .  S
C891       C1208   1.405       .  A
C891       Br906   1.929       .  S
C892        C895   1.479       .  S
C892       C1207   1.405       .  A
C892        C893   1.403       .  A
C893        C894   1.405       .  A
C893       Br901   1.936       .  S
C894       Br905   1.923       .  S
C895        C896   1.408       .  A
C895       C1216   1.406   1_554  A
C896        C897   1.406       .  A
C896       Br907   1.930       .  S
C897        C898   1.412       .  A
C897       Br903   1.933       .  S
C898       C1215   1.411   1_554  A
C899       C1214   1.411       .  A
C899        C900   1.405       .  A
C899       Br908   1.925       .  S
C900       C1211   1.406       .  A
C900       Br904   1.928       .  S
C909        C910   1.409       .  A
C909        C914   1.414       .  A
C910        C911   1.402       .  A
C910       Br922   1.917       .  S
C911        C912   1.406       .  A
C911       Br926   1.930       .  S
C912        C915   1.481       .  S
C912        C913   1.405       .  A
C913        C914   1.406       .  A
C913      Br1237   1.920   1_554  S
C914      Br1241   1.927   1_554  S
C915        C916   1.402   1_554  A
C915        C920   1.404       .  A
C916       C1233   1.407       .  A
C916      Br1243   1.936       .  S
C917       C1232   1.407       .  A
C917       C1234   1.428       .  A
C917       Br923   1.935       .  S
C918       C1233   1.428   1_554  A
C918        C919   1.427       .  A
C919        C920   1.407       .  A
C919       Br928   1.938       .  S
C920       Br924   1.933       .  S
Br921      C1229   1.920       .  S
Br925      C1230   1.927       .  S
Br927      C1232   1.936       .  S
C929       C1246   1.414   1_554  A
C929        C934   1.417       .  A
C930       C1245   1.414       .  A
C930        C931   1.407       .  A
C930       Br942   1.931       .  S
C931       C1248   1.406       .  A
C931       Br946   1.926       .  S
C932        C935   1.488       .  S
C932       C1247   1.406   1_554  A
C932        C933   1.409       .  A
C933        C934   1.409       .  A
C933       Br941   1.931       .  S
C934       Br945   1.934       .  S
C935        C936   1.410       .  A
C935        C940   1.408       .  A
C936        C937   1.408       .  A
C936       Br947   1.932       .  S
C937        C938   1.413       .  A
C937       Br943   1.928       .  S
C938        C939   1.415       .  A
C939        C940   1.408       .  A
C939       Br948   1.924       .  S
C940       Br944   1.930   1_554  S
C949        N950   1.355       .  A
C949        N954   1.357       .  A
C949       C1214   1.475       .  S
N950        C951   1.356       .  A
C951        N952   1.358       .  A
C951       C1234   1.501       .  S
N952        C953   1.358       .  A
C953        N954   1.358       .  A
C953       C1245   1.485       .  S
C955        N956   1.359       .  A
C955        N960   1.360       .  A
C955       C1145   1.483       .  S
N956        C957   1.359       .  A
C957        N958   1.357       .  A
C957       C1194   1.478       .  S
N958        C959   1.356       .  A
C959        N960   1.361       .  A
C959       C1165   1.474       .  S
C961        N962   1.356       .  A
C961        N966   1.358       .  A
C961       C1134   1.470       .  S
N962        C963   1.357       .  A
C963        N964   1.356       .  A
C963       C1114   1.480       .  S
N964        C965   1.355       .  A
C965        N966   1.359       .  A
C965       C1085   1.477       .  S
C967        N968   1.361       .  A
C967        N972   1.367       .  A
C967       C1074   1.516       .  S
N968        C969   1.360       .  A
C969        N970   1.359       .  A
C969       C1034   1.509       .  S
N970        C971   1.359       .  A
C971        N972   1.365       .  A
C971       C1054   1.490       .  S
C973       C1254   1.488       .  S
C973        O988   1.263       .  A
C973        O975   1.260       .  A
Tb974       O996   2.378       .  S
Tb974      O2254   2.369       .  S
Tb974      O2249   2.374       .  S
Tb974       O978   2.368       .  S
Tb974      O2262   2.331       .  S
Tb974       O995   2.339       .  S
O975       Tb979   2.351       .  S
O976        C987   1.259   1_545  A
C977       C1094   1.493       .  S
C977        O982   1.271       .  A
C977        O998   1.267       .  A
O978        C994   1.257       .  A
Tb979       O983   2.372       .  S
Tb979       O988   2.369       .  S
Tb979       O982   2.353       .  S
Tb979       O991   2.384       .  S
O981       C2248   1.273   1_455  A
O983        C993   1.277       .  A
C984       C1225   1.481       .  S
C984       O2245   1.273       .  A
C984        O997   1.266       .  A
O985        C992   1.278   1_655  A
O985      Tb2238   2.374       .  S
C986        O995   1.255       .  A
C987       C1125   1.493       .  S
C987        O989   1.258       .  A
O990        C993   1.276   1_655  A
O990      Tb2238   2.369       .  S
O991        C992   1.281       .  A
C992       C1019   1.505       .  S
C994       C1205   1.490       .  S
C994        O996   1.258       .  A
O998      Tb2238   2.331   1_455  S
C999       C1185   1.486       .  S
C999       O1014   1.261       .  A
C999       O1001   1.260       .  A
Tb1000     O1022   2.357       .  S
Tb1000     O2280   2.405       .  S
Tb1000     O2275   2.381       .  S
Tb1000     O1004   2.388       .  S
Tb1000     O2288   2.339       .  S
Tb1000     O1021   2.398       .  S
O1001     Tb1005   2.366       .  S
O1002      C1013   1.262       .  A
C1003      C1025   1.483       .  S
C1003      O1008   1.274       .  A
C1003      O1024   1.269       .  A
O1004      C1020   1.259       .  A
Tb1005     O1009   2.363       .  S
Tb1005     O1014   2.357       .  S
Tb1005     O1008   2.361       .  S
Tb1005     O1017   2.358       .  S
O1007      C2274   1.274       .  A
O1009      C1019   1.277       .  A
C1010      C1174   1.507       .  S
C1010      O2271   1.274       .  A
C1010      O1023   1.268       .  A
O1011      C1018   1.280   1_655  A
O1011     Tb2264   2.381       .  S
C1012      O1021   1.264       .  A
C1013      C1065   1.512       .  S
C1013      O1015   1.259       .  A
O1016      C1019   1.285   1_655  A
O1016     Tb2264   2.405       .  S
O1017      C1018   1.275       .  A
C1020      C1154   1.491       .  S
C1020      O1022   1.256       .  A
O1024     Tb2264   2.339   1_455  S
C1025      C1026   1.411       .  A
C1025      C1030   1.409       .  A
C1026      C1027   1.410       .  A
C1026     Br1038   1.924       .  S
C1027      C1028   1.409       .  A
C1027     Br1042   1.926   1_556  S
C1028      C1031   1.491       .  S
C1028      C1029   1.407       .  A
C1029      C1030   1.407       .  A
C1029     Br1037   1.923       .  S
C1030     Br1041   1.925       .  S
C1031      C1032   1.405       .  A
C1031      C1036   1.405       .  A
C1032      C1033   1.411       .  A
C1032     Br1043   1.935       .  S
C1033      C1034   1.426       .  A
C1033     Br1039   1.935       .  S
C1034      C1035   1.428       .  A
C1035      C1036   1.413       .  A
C1036     Br1040   1.934       .  S
C1045      C1046   1.418       .  A
C1046      C1047   1.416       .  A
C1046     Br1058   1.918       .  S
C1047      C1048   1.409       .  A
C1047     Br1062   1.930       .  S
C1048      C1051   1.501       .  S
C1048      C1049   1.407       .  A
C1050     Br1061   1.920       .  S
C1051      C1052   1.412       .  A
C1051      C1056   1.410       .  A
C1052      C1053   1.414       .  A
C1052     Br1063   1.927       .  S
C1053      C1054   1.411       .  A
C1053     Br1059   1.928       .  S
C1054      C1055   1.412       .  A
C1055      C1056   1.413       .  A
C1065      C1066   1.424       .  A
C1065      C1070   1.421       .  A
C1066      C1067   1.410       .  A
C1066     Br1078   1.920       .  S
C1067      C1068   1.403       .  A
C1067     Br1082   1.934       .  S
C1068      C1071   1.504       .  S
C1068      C1069   1.412       .  A
C1069      C1070   1.417       .  A
C1069     Br1077   1.921   1_556  S
C1070     Br1081   1.933       .  S
C1071      C1072   1.408       .  A
C1071      C1076   1.412       .  A
C1072      C1073   1.416       .  A
C1072     Br1083   1.930       .  S
C1073      C1074   1.427       .  A
C1073     Br1079   1.935   1_556  S
C1074      C1075   1.424       .  A
C1075      C1076   1.415       .  A
C1075     Br1084   1.933       .  S
C1076     Br1080   1.936       .  S
C1085      C1086   1.410       .  A
C1085      C1090   1.413       .  A
C1086      C1087   1.405       .  A
C1086     Br1098   1.930       .  S
C1087      C1088   1.412       .  A
C1087     Br1102   1.934       .  S
C1088      C1091   1.483       .  S
C1088      C1089   1.410       .  A
C1089      C1090   1.406       .  A
C1089     Br1097   1.932       .  S
C1090     Br1101   1.930       .  S
C1091      C1092   1.410       .  A
C1091      C1096   1.405       .  A
C1092      C1093   1.410       .  A
C1092     Br1103   1.931       .  S
C1093      C1094   1.418       .  A
C1093     Br1099   1.935       .  S
C1094      C1095   1.419       .  A
C1095      C1096   1.402       .  A
C1095     Br1104   1.917       .  S
C1096     Br1100   1.940       .  S
C1105      C1106   1.403       .  A
C1105      C1110   1.407       .  A
C1106      C1107   1.405       .  A
C1107      C1108   1.411       .  A
C1107     Br1122   1.929       .  S
C1108      C1111   1.477       .  S
C1108      C1109   1.406       .  A
C1109      C1110   1.402       .  A
C1109     Br1117   1.926       .  S
C1110     Br1121   1.928   1_565  S
C1111      C1112   1.408       .  A
C1111      C1116   1.404       .  A
C1112      C1113   1.404       .  A
C1113      C1114   1.417       .  A
C1113     Br1119   1.935       .  S
C1114      C1115   1.417       .  A
C1115      C1116   1.405       .  A
C1115     Br1124   1.932       .  S
C1116     Br1120   1.930       .  S
C1125      C1126   1.413       .  A
C1125      C1130   1.416       .  A
C1126      C1127   1.411       .  A
C1126     Br1138   1.923       .  S
C1127      C1128   1.410       .  A
C1127     Br1142   1.931       .  S
C1128      C1131   1.495       .  S
C1128      C1129   1.409       .  A
C1129      C1130   1.413       .  A
C1129     Br1137   1.930       .  S
C1131      C1132   1.412       .  A
C1131      C1136   1.412       .  A
C1132      C1133   1.408       .  A
C1132     Br1143   1.918       .  S
C1133      C1134   1.405       .  A
C1133     Br1139   1.931       .  S
C1134      C1135   1.406       .  A
C1135      C1136   1.406       .  A
C1135     Br1144   1.930       .  S
C1136     Br1140   1.921       .  S
C1145      C1146   1.413       .  A
C1145      C1150   1.412       .  A
C1146      C1147   1.407       .  A
C1146     Br1158   1.922       .  S
C1147      C1148   1.407       .  A
C1147     Br1162   1.930       .  S
C1148      C1151   1.487       .  S
C1148      C1149   1.408       .  A
C1149      C1150   1.410       .  A
C1149     Br1157   1.924       .  S
C1150     Br1161   1.929       .  S
C1151      C1152   1.409       .  A
C1151      C1156   1.406       .  A
C1152      C1153   1.413       .  A
C1152     Br1163   1.930       .  S
C1153      C1154   1.416       .  A
C1153     Br1159   1.930       .  S
C1154      C1155   1.418       .  A
C1155      C1156   1.405       .  A
C1155     Br1164   1.926       .  S
C1156     Br1160   1.936       .  S
C1165      C1166   1.409       .  A
C1165      C1170   1.406       .  A
C1166      C1167   1.410       .  A
C1166     Br1178   1.927       .  S
C1167      C1168   1.411       .  A
C1167     Br1182   1.923       .  S
C1168      C1171   1.489       .  S
C1168      C1169   1.410       .  A
C1169      C1170   1.403       .  A
C1169     Br1177   1.924       .  S
C1170     Br1181   1.926       .  S
C1171      C1172   1.405       .  A
C1171      C1176   1.409       .  A
C1172      C1173   1.405       .  A
C1172     Br1183   1.934       .  S
C1173      C1174   1.417       .  A
C1173     Br2443   1.922       .  S
C1174      C1175   1.422       .  A
C1175      C1176   1.413       .  A
C1175     Br1184   1.933       .  S
C1176     Br1180   1.930       .  S
Br1179     C2437   1.922   1_455  S
C1185      C1186   1.415       .  A
C1185      C1190   1.414       .  A
C1186      C1187   1.409       .  A
C1186     Br1198   1.926       .  S
C1187      C1188   1.408       .  A
C1187     Br1202   1.932       .  S
C1188      C1191   1.483       .  S
C1188      C1189   1.404       .  A
C1189      C1190   1.405       .  A
C1189     Br1197   1.927       .  S
C1190     Br1201   1.922       .  S
C1191      C1192   1.408       .  A
C1191      C1196   1.409       .  A
C1192      C1193   1.407       .  A
C1192     Br1203   1.931       .  S
C1193      C1194   1.411       .  A
C1193     Br1199   1.927       .  S
C1194      C1195   1.412       .  A
C1195      C1196   1.406       .  A
C1195     Br1204   1.929       .  S
C1196     Br1200   1.930       .  S
C1205      C1210   1.419       .  A
C1206      C1207   1.408       .  A
C1206     Br1218   1.928   1_554  S
C1207     Br1222   1.929   1_554  S
C1208      C1211   1.479       .  S
C1208      C1209   1.403       .  A
C1209      C1210   1.405       .  A
C1209     Br1217   1.936       .  S
C1210     Br1221   1.923       .  S
C1211      C1212   1.408       .  A
C1212      C1213   1.406       .  A
C1212     Br1223   1.930       .  S
C1213      C1214   1.412       .  A
C1213     Br1219   1.933       .  S
C1215      C1216   1.405       .  A
C1215     Br1224   1.925       .  S
C1216     Br1220   1.928       .  S
C1225      C1226   1.409       .  A
C1225      C1230   1.414       .  A
C1226      C1227   1.402       .  A
C1226     Br1238   1.917       .  S
C1227      C1228   1.406       .  A
C1227     Br1242   1.930       .  S
C1228      C1231   1.481       .  S
C1228      C1229   1.405       .  A
C1229      C1230   1.406       .  A
C1231      C1232   1.402       .  A
C1231      C1236   1.404       .  A
C1233     Br1239   1.935       .  S
C1234      C1235   1.427       .  A
C1235      C1236   1.407       .  A
C1235     Br1244   1.938       .  S
C1236     Br1240   1.933       .  S
C1245      C1250   1.417       .  A
C1246      C1247   1.407       .  A
C1246     Br1258   1.931       .  S
C1247     Br1262   1.926       .  S
C1248      C1251   1.488       .  S
C1248      C1249   1.409       .  A
C1249      C1250   1.409       .  A
C1249     Br1257   1.931       .  S
C1250     Br1261   1.934       .  S
C1251      C1252   1.410       .  A
C1251      C1256   1.408       .  A
C1252      C1253   1.408       .  A
C1252     Br1263   1.932       .  S
C1253      C1254   1.413       .  A
C1253     Br1259   1.928       .  S
C1254      C1255   1.415       .  A
C1255      C1256   1.408       .  A
C1255     Br1264   1.924       .  S
C1256     Br1260   1.930       .  S
C1265      N1266   1.355       .  A
C1265      N1270   1.358       .  A
C1265      C1530   1.475       .  S
N1266      C1267   1.356       .  A
C1267      N1268   1.358   1_554  A
C1267      C1550   1.500       .  S
N1268      C1269   1.359       .  A
C1269      N1270   1.359   1_556  A
C1269      C1561   1.485   1_556  S
C1271      N1272   1.359       .  A
C1271      N1276   1.360       .  A
C1271      C1461   1.483       .  S
N1272      C1273   1.359       .  A
C1273      N1274   1.357       .  A
C1273      C1510   1.477       .  S
N1274      C1275   1.355       .  A
C1275      N1276   1.361       .  A
C1275      C1481   1.473       .  S
C1277      N1278   1.356       .  A
C1277      N1282   1.358       .  A
C1277      C1450   1.471       .  S
N1278      C1279   1.357       .  A
C1279      N1280   1.356       .  A
C1279      C1430   1.480       .  S
N1280      C1281   1.356       .  A
C1281      N1282   1.360       .  A
C1281      C1401   1.478       .  S
C1283      N1284   1.361       .  A
C1283      N1288   1.366       .  A
C1283      C1390   1.516       .  S
N1284      C1285   1.360       .  A
C1285      N1286   1.359       .  A
C1285      C1350   1.510       .  S
N1286      C1287   1.359       .  A
C1287      N1288   1.365       .  A
C1287      C1370   1.489       .  S
C1289      C1570   1.486       .  S
C1289      O1304   1.263       .  A
C1289      O1291   1.260       .  A
Tb1290     O1312   2.379       .  S
Tb1290     O1945   2.324   1_545  S
Tb1290     O1928   2.360   1_545  S
Tb1290     O1294   2.368       .  S
Tb1290     O1311   2.340   1_545  S
O1291     Tb1295   2.350       .  S
O1292      C1303   1.259       .  A
O1292     Tb1927   2.382       .  S
C1293      C1410   1.495       .  S
C1293      O1298   1.271       .  A
C1293      O1314   1.267       .  A
O1294      C1310   1.256       .  A
Tb1295     O1924   2.382       .  S
Tb1295     O1299   2.372       .  S
Tb1295     O1304   2.368       .  S
Tb1295     O1298   2.353       .  S
Tb1295     O1937   2.374   1_545  S
Tb1295     O1307   2.383       .  S
Tb1295     O1929   2.348   1_545  S
O1296      C1934   1.259       .  A
O1296     Tb1922   2.364       .  S
O1297     Tb1927   2.349       .  S
O1299      C1309   1.276   1_554  A
C1300      C1541   1.481       .  S
C1300      O1313   1.266       .  A
O1301      C1308   1.278       .  A
C1302      C2053   1.461       .  S
C1302      O1928   1.259       .  A
C1302      O1311   1.256       .  A
C1303      C1441   1.493       .  S
C1303      O1305   1.258       .  A
O1305     Tb1927   2.373       .  S
O1306      C1309   1.276   1_554  A
O1307      C1308   1.281       .  A
C1308      C1335   1.506       .  S
C1309      C1650   1.497       .  S
C1310      C1521   1.490       .  S
C1310      O1312   1.258       .  A
O1313     Tb1922   2.323       .  S
C1315      C1501   1.486       .  S
C1315      O1330   1.260       .  A
C1315      O1317   1.260       .  A
Tb1316     O1338   2.356       .  S
Tb1316     O1971   2.341   1_545  S
Tb1316     O1954   2.358       .  S
Tb1316     O1320   2.386       .  S
Tb1316     O1337   2.399   1_545  S
O1317     Tb1321   2.367       .  S
O1318      C1329   1.262       .  A
O1318     Tb1953   2.378       .  S
C1319      C1341   1.484       .  S
C1319      O1324   1.274       .  A
C1319      O1340   1.270       .  A
O1320      C1336   1.259       .  A
Tb1321     O1950   2.379   1_545  S
Tb1321     O1325   2.364       .  S
Tb1321     O1330   2.358       .  S
Tb1321     O1324   2.362       .  S
Tb1321     O1963   2.382   1_545  S
Tb1321     O1333   2.359       .  S
Tb1321     O1955   2.357   1_545  S
O1322      C1960   1.256       .  A
O1322     Tb1948   2.357       .  S
O1323     Tb1953   2.358       .  S
O1325      C1335   1.277       .  A
C1326      C1490   1.507       .  S
C1326      O1339   1.268       .  A
O1327      C1334   1.279       .  A
C1328      C1993   1.512       .  S
C1328      O1954   1.256   1_565  A
C1328      O1337   1.264       .  A
C1329      C1381   1.512       .  S
C1329      O1331   1.258       .  A
O1331     Tb1953   2.382       .  S
O1332      C1335   1.285       .  A
O1333      C1334   1.275       .  A
C1334      C1625   1.497       .  S
C1336      C1470   1.490       .  S
C1336      O1338   1.256       .  A
O1339     Tb1948   2.342       .  S
C1341      C1342   1.412       .  A
C1341      C1346   1.410       .  A
C1342      C1343   1.410       .  A
C1342     Br1354   1.924       .  S
C1343      C1344   1.409       .  A
C1343     Br1358   1.926       .  S
C1344      C1347   1.492       .  S
C1344      C1345   1.407       .  A
C1345      C1346   1.407       .  A
C1345     Br1353   1.923       .  S
C1346     Br1357   1.925       .  S
C1347      C1348   1.405       .  A
C1347      C1352   1.405       .  A
C1348      C1349   1.411       .  A
C1348     Br1359   1.935       .  S
C1349      C1350   1.426       .  A
C1349     Br1355   1.935       .  S
C1350      C1351   1.428       .  A
C1351      C1352   1.413       .  A
C1351     Br1676   1.933       .  S
C1352     Br1356   1.934       .  S
Br1360     C1667   1.933       .  S
C1361      C1960   1.511       .  S
C1361      C1362   1.418       .  A
C1361      C1998   1.419       .  A
C1362      C1363   1.416       .  A
C1362     Br1374   1.917       .  S
C1363      C1364   1.409       .  A
C1363     Br1378   1.930       .  S
C1364      C1367   1.499       .  S
C1364      C1365   1.406       .  A
C1365      C1998   1.412       .  A
C1365     Br2005   1.930       .  S
C1366      C1993   1.420       .  A
C1366      C1997   1.413       .  A
C1366     Br1377   1.922   1_565  S
C1367      C1368   1.412       .  A
C1367      C1372   1.409       .  A
C1368      C1369   1.414       .  A
C1368     Br1379   1.928       .  S
C1369      C1370   1.411       .  A
C1369     Br1375   1.928       .  S
C1370      C1371   1.412       .  A
C1371      C1372   1.413       .  A
C1371     Br1696   1.926       .  S
C1372     Br1692   1.924       .  S
Br1373     C1997   1.930       .  S
Br1376     C1688   1.924   1_554  S
Br1380     C1687   1.926   1_554  S
C1381      C1382   1.424       .  A
C1381      C1386   1.421       .  A
C1382      C1383   1.410       .  A
C1382     Br1394   1.920       .  S
C1383      C1384   1.403       .  A
C1383     Br1398   1.934       .  S
C1384      C1387   1.503       .  S
C1384      C1385   1.412       .  A
C1385      C1386   1.417       .  A
C1385     Br1393   1.921       .  S
C1386     Br1397   1.933       .  S
C1387      C1388   1.408       .  A
C1387      C1392   1.413       .  A
C1388      C1389   1.416       .  A
C1388     Br1399   1.930       .  S
C1389      C1390   1.427       .  A
C1389     Br1395   1.935       .  S
C1390      C1391   1.424       .  A
C1391      C1392   1.415       .  A
C1391     Br1400   1.933       .  S
C1392     Br1396   1.936       .  S
C1401      C1402   1.410       .  A
C1401      C1406   1.413       .  A
C1402      C1403   1.405       .  A
C1402     Br1414   1.930       .  S
C1403      C1404   1.412       .  A
C1403     Br1418   1.934       .  S
C1404      C1407   1.484       .  S
C1404      C1405   1.410       .  A
C1405      C1406   1.407       .  A
C1405     Br1413   1.932       .  S
C1406     Br1417   1.929       .  S
C1407      C1408   1.410       .  A
C1407      C1412   1.405       .  A
C1408      C1409   1.410       .  A
C1408     Br1419   1.931       .  S
C1409      C1410   1.419       .  A
C1409     Br1415   1.936       .  S
C1410      C1411   1.420       .  A
C1411      C1412   1.403       .  A
C1411     Br1420   1.919       .  S
C1412     Br1416   1.940       .  S
C1421      C1934   1.461       .  S
C1421      C1422   1.403       .  A
C1421      C1426   1.407       .  A
C1422      C1423   1.405       .  A
C1422     Br2066   1.923       .  S
C1423      C1424   1.411       .  A
C1423     Br1438   1.929       .  S
C1424      C1427   1.478       .  S
C1424      C1425   1.407       .  A
C1425      C1426   1.402       .  A
C1425     Br1433   1.927       .  S
C1426     Br1437   1.928       .  S
C1427      C1428   1.408       .  A
C1427      C1432   1.404       .  A
C1428      C1429   1.404       .  A
C1428     Br2071   1.933       .  S
C1429      C1430   1.417       .  A
C1429     Br1435   1.934       .  S
C1430      C1431   1.416       .  A
C1431      C1432   1.406       .  A
C1431     Br1440   1.932       .  S
C1432     Br1436   1.930       .  S
Br1434     C2054   1.924       .  S
Br1439     C2060   1.933       .  S
C1441      C1442   1.413       .  A
C1441      C1446   1.416       .  A
C1442      C1443   1.411       .  A
C1442     Br1454   1.924       .  S
C1443      C1444   1.410       .  A
C1443     Br1458   1.931       .  S
C1444      C1447   1.495       .  S
C1444      C1445   1.409       .  A
C1445      C1446   1.413       .  A
C1445     Br1453   1.930       .  S
C1446     Br2089   1.927       .  S
C1447      C1448   1.412       .  A
C1447      C1452   1.412       .  A
C1448      C1449   1.409       .  A
C1448     Br1459   1.917       .  S
C1449      C1450   1.405       .  A
C1449     Br1455   1.931       .  S
C1450      C1451   1.406       .  A
C1451      C1452   1.407       .  A
C1451     Br1460   1.930       .  S
C1452     Br1456   1.921       .  S
Br1457     C2078   1.927   1_545  S
C1461      C1462   1.413       .  A
C1461      C1466   1.412       .  A
C1462      C1463   1.407       .  A
C1462     Br1474   1.923       .  S
C1463      C1464   1.407       .  A
C1463     Br1478   1.930       .  S
C1464      C1467   1.487       .  S
C1464      C1465   1.408       .  A
C1465      C1466   1.410       .  A
C1465     Br1473   1.925       .  S
C1466     Br1477   1.929       .  S
C1467      C1468   1.409       .  A
C1467      C1472   1.406       .  A
C1468      C1469   1.413       .  A
C1468     Br1479   1.930       .  S
C1469      C1470   1.416       .  A
C1469     Br1475   1.930   1_655  S
C1470      C1471   1.418       .  A
C1471      C1472   1.405       .  A
C1471     Br1480   1.927       .  S
C1472     Br1476   1.936       .  S
C1481      C1482   1.408       .  A
C1481      C1486   1.406       .  A
C1482      C1483   1.410       .  A
C1482     Br1494   1.928       .  S
C1483      C1484   1.411       .  A
C1483     Br1498   1.922       .  S
C1484      C1487   1.489       .  S
C1484      C1485   1.410       .  A
C1485      C1486   1.403       .  A
C1485     Br1493   1.924       .  S
C1486     Br1497   1.927       .  S
C1487      C1488   1.405       .  A
C1487      C1492   1.410       .  A
C1488      C1489   1.405       .  A
C1488     Br1499   1.934       .  S
C1489      C1490   1.417       .  A
C1490      C1491   1.422       .  A
C1491      C1492   1.414       .  A
C1491     Br1500   1.933       .  S
C1492     Br1496   1.931       .  S
C1501      C1502   1.416       .  A
C1501      C1506   1.414       .  A
C1502      C1503   1.409       .  A
C1502     Br1514   1.927       .  S
C1503      C1504   1.408       .  A
C1503     Br1518   1.932       .  S
C1504      C1507   1.483       .  S
C1504      C1505   1.404       .  A
C1505      C1506   1.405       .  A
C1505     Br1513   1.927       .  S
C1506     Br1517   1.923       .  S
C1507      C1508   1.408       .  A
C1507      C1512   1.409       .  A
C1508      C1509   1.407       .  A
C1508     Br1519   1.931       .  S
C1509      C1510   1.411       .  A
C1509     Br1515   1.927       .  S
C1510      C1511   1.411       .  A
C1511      C1512   1.406       .  A
C1511     Br1520   1.929       .  S
C1512     Br1516   1.929       .  S
C1521      C1838   1.418       .  A
C1521      C1526   1.419       .  A
C1522      C1837   1.418       .  A
C1522      C1523   1.409       .  A
C1522     Br1534   1.927       .  S
C1523      C1840   1.405       .  A
C1523     Br1538   1.929       .  S
C1524      C1527   1.479       .  S
C1524      C1839   1.405       .  A
C1524      C1525   1.403       .  A
C1525      C1526   1.405       .  A
C1525     Br1533   1.936       .  S
C1526     Br1537   1.924       .  S
C1527      C1528   1.408       .  A
C1527      C1848   1.406   1_554  A
C1528      C1529   1.406       .  A
C1528     Br1539   1.930       .  S
C1529      C1530   1.413       .  A
C1529     Br1535   1.933       .  S
C1530      C1847   1.411   1_554  A
C1531      C1846   1.411       .  A
C1531      C1532   1.406       .  A
C1531     Br1540   1.925       .  S
C1532      C1843   1.406       .  A
C1532     Br1536   1.929       .  S
C1541      C1542   1.409       .  A
C1541      C1546   1.414       .  A
C1542      C1543   1.402       .  A
C1542     Br1554   1.918       .  S
C1543      C1544   1.406       .  A
C1543     Br1558   1.930       .  S
C1544      C1547   1.481       .  S
C1544      C1545   1.405       .  A
C1545      C1546   1.406       .  A
C1545     Br1869   1.920   1_554  S
C1546     Br1873   1.927   1_554  S
C1547      C1548   1.402   1_554  A
C1547      C1552   1.404       .  A
C1548      C1865   1.407       .  A
C1548     Br1875   1.936       .  S
C1549      C1864   1.407       .  A
C1549      C1866   1.427       .  A
C1549     Br1555   1.935       .  S
C1550      C1865   1.427   1_554  A
C1550      C1551   1.427       .  A
C1551      C1552   1.407       .  A
C1551     Br1560   1.938       .  S
C1552     Br1556   1.933       .  S
Br1553     C1861   1.920       .  S
Br1557     C1862   1.927       .  S
Br1559     C1864   1.936       .  S
C1561      C1878   1.414   1_554  A
C1561      C1566   1.417       .  A
C1562      C1877   1.414       .  A
C1562      C1563   1.408       .  A
C1562     Br1574   1.931       .  S
C1563      C1880   1.406       .  A
C1563     Br1578   1.925       .  S
C1564      C1567   1.488       .  S
C1564      C1879   1.406   1_554  A
C1564      C1565   1.409       .  A
C1565      C1566   1.409       .  A
C1565     Br1573   1.931       .  S
C1566     Br1577   1.934       .  S
C1567      C1568   1.410       .  A
C1567      C1572   1.408       .  A
C1568      C1569   1.408       .  A
C1568     Br1579   1.932       .  S
C1569      C1570   1.413       .  A
C1569     Br1575   1.928       .  S
C1570      C1571   1.415       .  A
C1571      C1572   1.408       .  A
C1571     Br1580   1.925       .  S
C1572     Br1576   1.930   1_554  S
C1581      N1582   1.355       .  A
C1581      N1586   1.358       .  A
C1581      C1846   1.475       .  S
N1582      C1583   1.356       .  A
C1583      N1584   1.358       .  A
C1583      C1866   1.500       .  S
N1584      C1585   1.359       .  A
C1585      N1586   1.359       .  A
C1585      C1877   1.485       .  S
C1587      N1588   1.359       .  A
C1587      N1592   1.360       .  A
C1587      C1777   1.483       .  S
N1588      C1589   1.359       .  A
C1589      N1590   1.357       .  A
C1589      C1826   1.477       .  S
N1590      C1591   1.355       .  A
C1591      N1592   1.361       .  A
C1591      C1797   1.473       .  S
C1593      N1594   1.356       .  A
C1593      N1598   1.358       .  A
C1593      C1766   1.471       .  S
N1594      C1595   1.357       .  A
C1595      N1596   1.356       .  A
C1595      C1746   1.480       .  S
N1596      C1597   1.356       .  A
C1597      N1598   1.360       .  A
C1597      C1717   1.478       .  S
C1599      N1600   1.361       .  A
C1599      N1604   1.366       .  A
C1599      C1706   1.516       .  S
N1600      C1601   1.360       .  A
C1601      N1602   1.359       .  A
C1601      C1666   1.510       .  S
N1602      C1603   1.359       .  A
C1603      N1604   1.365       .  A
C1603      C1686   1.489       .  S
C1605      C1886   1.486       .  S
C1605      O1620   1.263       .  A
C1605      O1607   1.260       .  A
Tb1606     O1628   2.379       .  S
Tb1606     O2261   2.324   1_545  S
Tb1606     O2244   2.360   1_545  S
Tb1606     O1610   2.368       .  S
Tb1606     O1627   2.340   1_545  S
O1607     Tb1611   2.350       .  S
O1608      C1619   1.259       .  A
O1608     Tb2243   2.382       .  S
C1609      C1726   1.495       .  S
C1609      O1614   1.271       .  A
C1609      O1630   1.267       .  A
O1610      C1626   1.256       .  A
Tb1611     O2240   2.382       .  S
Tb1611     O1615   2.372       .  S
Tb1611     O1620   2.368       .  S
Tb1611     O1614   2.353       .  S
Tb1611     O2253   2.374   1_545  S
Tb1611     O1623   2.383       .  S
Tb1611     O2245   2.348   1_545  S
O1612      C2250   1.259       .  A
O1612     Tb2238   2.364       .  S
O1613     Tb2243   2.349       .  S
O1615      C1625   1.276       .  A
C1616      C1857   1.481       .  S
C1616      O1629   1.266       .  A
O1617      C1624   1.278       .  A
C1618      C2369   1.461       .  S
C1618      O2244   1.259       .  A
C1618      O1627   1.256       .  A
C1619      C1757   1.493       .  S
C1619      O1621   1.258       .  A
O1621     Tb2243   2.373       .  S
O1622      C1625   1.276       .  A
O1623      C1624   1.281       .  A
C1624      C1651   1.506       .  S
C1626      C1837   1.490       .  S
C1626      O1628   1.258       .  A
O1629     Tb2238   2.323       .  S
C1631      C1817   1.486       .  S
C1631      O1646   1.260       .  A
C1631      O1633   1.260       .  A
Tb1632     O1654   2.356       .  S
Tb1632     O2287   2.341   1_545  S
Tb1632     O2270   2.358       .  S
Tb1632     O1636   2.386       .  S
Tb1632     O1653   2.399   1_545  S
O1633     Tb1637   2.367       .  S
O1634      C1645   1.262       .  A
O1634     Tb2269   2.378       .  S
C1635      C1657   1.484       .  S
C1635      O1640   1.274       .  A
C1635      O1656   1.270       .  A
O1636      C1652   1.259       .  A
Tb1637     O2266   2.379   1_545  S
Tb1637     O1641   2.364       .  S
Tb1637     O1646   2.358       .  S
Tb1637     O1640   2.362       .  S
Tb1637     O2279   2.382   1_545  S
Tb1637     O1649   2.359       .  S
Tb1637     O2271   2.357   1_545  S
O1638      C2276   1.256       .  A
O1638     Tb2264   2.357       .  S
O1639     Tb2269   2.358       .  S
O1641      C1651   1.277       .  A
C1642      C1806   1.507       .  S
C1642      O1655   1.268       .  A
O1643      C1650   1.279       .  A
C1644      C2309   1.512       .  S
C1644      O2270   1.256   1_565  A
C1644      O1653   1.264       .  A
C1645      C1697   1.512       .  S
C1645      O1647   1.258       .  A
O1647     Tb2269   2.382       .  S
O1648      C1651   1.285       .  A
O1649      C1650   1.275       .  A
C1652      C1786   1.490       .  S
C1652      O1654   1.256       .  A
O1655     Tb2264   2.342       .  S
C1657      C1658   1.412       .  A
C1657      C1662   1.410       .  A
C1658      C1659   1.410       .  A
C1658     Br1670   1.924       .  S
C1659      C1660   1.409       .  A
C1659     Br1674   1.926   1_556  S
C1660      C1663   1.492       .  S
C1660      C1661   1.407       .  A
C1661      C1662   1.407       .  A
C1661     Br1669   1.923       .  S
C1662     Br1673   1.925       .  S
C1663      C1664   1.405       .  A
C1663      C1668   1.405       .  A
C1664      C1665   1.411       .  A
C1664     Br1675   1.935       .  S
C1665      C1666   1.426       .  A
C1665     Br1671   1.935       .  S
C1666      C1667   1.428       .  A
C1667      C1668   1.413       .  A
C1668     Br1672   1.934       .  S
C1677      C2276   1.511       .  S
C1677      C1678   1.418       .  A
C1677      C2314   1.419       .  A
C1678      C1679   1.416       .  A
C1678     Br1690   1.917       .  S
C1679      C1680   1.409       .  A
C1679     Br1694   1.930       .  S
C1680      C1683   1.499       .  S
C1680      C1681   1.406       .  A
C1681      C2314   1.412       .  A
C1681     Br2321   1.930       .  S
C1682      C2309   1.420       .  A
C1682      C2313   1.413       .  A
C1682     Br1693   1.922   1_565  S
C1683      C1684   1.412       .  A
C1683      C1688   1.409       .  A
C1684      C1685   1.414       .  A
C1684     Br1695   1.928       .  S
C1685      C1686   1.411       .  A
C1685     Br1691   1.928       .  S
C1686      C1687   1.412       .  A
C1687      C1688   1.413       .  A
Br1689     C2313   1.930       .  S
C1697      C1698   1.424       .  A
C1697      C1702   1.421       .  A
C1698      C1699   1.410       .  A
C1698     Br1710   1.920       .  S
C1699      C1700   1.403       .  A
C1699     Br1714   1.934       .  S
C1700      C1703   1.503       .  S
C1700      C1701   1.412       .  A
C1701      C1702   1.417       .  A
C1701     Br1709   1.921   1_556  S
C1702     Br1713   1.933       .  S
C1703      C1704   1.408       .  A
C1703      C1708   1.413       .  A
C1704      C1705   1.416       .  A
C1704     Br1715   1.930       .  S
C1705      C1706   1.427       .  A
C1705     Br1711   1.935   1_556  S
C1706      C1707   1.424       .  A
C1707      C1708   1.415       .  A
C1707     Br1716   1.933       .  S
C1708     Br1712   1.936       .  S
C1717      C1718   1.410       .  A
C1717      C1722   1.413       .  A
C1718      C1719   1.405       .  A
C1718     Br1730   1.930       .  S
C1719      C1720   1.412       .  A
C1719     Br1734   1.934       .  S
C1720      C1723   1.484       .  S
C1720      C1721   1.410       .  A
C1721      C1722   1.407       .  A
C1721     Br1729   1.932       .  S
C1722     Br1733   1.929       .  S
C1723      C1724   1.410       .  A
C1723      C1728   1.405       .  A
C1724      C1725   1.410       .  A
C1724     Br1735   1.931       .  S
C1725      C1726   1.419       .  A
C1725     Br1731   1.936       .  S
C1726      C1727   1.420       .  A
C1727      C1728   1.403       .  A
C1727     Br1736   1.919       .  S
C1728     Br1732   1.940       .  S
C1737      C2250   1.461       .  S
C1737      C1738   1.403       .  A
C1737      C1742   1.407       .  A
C1738      C1739   1.405       .  A
C1738     Br2382   1.923       .  S
C1739      C1740   1.411       .  A
C1739     Br1754   1.929       .  S
C1740      C1743   1.478       .  S
C1740      C1741   1.407       .  A
C1741      C1742   1.402       .  A
C1741     Br1749   1.927       .  S
C1742     Br1753   1.928       .  S
C1743      C1744   1.408       .  A
C1743      C1748   1.404       .  A
C1744      C1745   1.404       .  A
C1744     Br2387   1.933       .  S
C1745      C1746   1.417       .  A
C1745     Br1751   1.934       .  S
C1746      C1747   1.416       .  A
C1747      C1748   1.406       .  A
C1747     Br1756   1.932       .  S
C1748     Br1752   1.930       .  S
Br1750     C2370   1.924       .  S
Br1755     C2376   1.933       .  S
C1757      C1758   1.413       .  A
C1757      C1762   1.416       .  A
C1758      C1759   1.411       .  A
C1758     Br1770   1.924       .  S
C1759      C1760   1.410       .  A
C1759     Br1774   1.931       .  S
C1760      C1763   1.495       .  S
C1760      C1761   1.409       .  A
C1761      C1762   1.413       .  A
C1761     Br1769   1.930       .  S
C1762     Br2405   1.927       .  S
C1763      C1764   1.412       .  A
C1763      C1768   1.412       .  A
C1764      C1765   1.409       .  A
C1764     Br1775   1.917       .  S
C1765      C1766   1.405       .  A
C1765     Br1771   1.931       .  S
C1766      C1767   1.406       .  A
C1767      C1768   1.407       .  A
C1767     Br1776   1.930       .  S
C1768     Br1772   1.921       .  S
Br1773     C2394   1.927   1_545  S
C1777      C1778   1.413       .  A
C1777      C1782   1.412       .  A
C1778      C1779   1.407       .  A
C1778     Br1790   1.923       .  S
C1779      C1780   1.407       .  A
C1779     Br1794   1.930       .  S
C1780      C1783   1.487       .  S
C1780      C1781   1.408       .  A
C1781      C1782   1.410       .  A
C1781     Br1789   1.925       .  S
C1782     Br1793   1.929       .  S
C1783      C1784   1.409       .  A
C1783      C1788   1.406       .  A
C1784      C1785   1.413       .  A
C1784     Br1795   1.930       .  S
C1785      C1786   1.416       .  A
C1785     Br1791   1.930   1_655  S
C1786      C1787   1.418       .  A
C1787      C1788   1.405       .  A
C1787     Br1796   1.927       .  S
C1788     Br1792   1.936       .  S
C1797      C1798   1.408       .  A
C1797      C1802   1.406       .  A
C1798      C1799   1.410       .  A
C1798     Br1810   1.928       .  S
C1799      C1800   1.411       .  A
C1799     Br1814   1.922       .  S
C1800      C1803   1.489       .  S
C1800      C1801   1.410       .  A
C1801      C1802   1.403       .  A
C1801     Br1809   1.924       .  S
C1802     Br1813   1.927       .  S
C1803      C1804   1.405       .  A
C1803      C1808   1.410       .  A
C1804      C1805   1.405       .  A
C1804     Br1815   1.934       .  S
C1805      C1806   1.417       .  A
C1806      C1807   1.422       .  A
C1807      C1808   1.414       .  A
C1807     Br1816   1.933       .  S
C1808     Br1812   1.931       .  S
C1817      C1818   1.416       .  A
C1817      C1822   1.414       .  A
C1818      C1819   1.409       .  A
C1818     Br1830   1.927       .  S
C1819      C1820   1.408       .  A
C1819     Br1834   1.932       .  S
C1820      C1823   1.483       .  S
C1820      C1821   1.404       .  A
C1821      C1822   1.405       .  A
C1821     Br1829   1.927       .  S
C1822     Br1833   1.923       .  S
C1823      C1824   1.408       .  A
C1823      C1828   1.409       .  A
C1824      C1825   1.407       .  A
C1824     Br1835   1.931       .  S
C1825      C1826   1.411       .  A
C1825     Br1831   1.927       .  S
C1826      C1827   1.411       .  A
C1827      C1828   1.406       .  A
C1827     Br1836   1.929       .  S
C1828     Br1832   1.929       .  S
C1837      C1842   1.419       .  A
C1838      C1839   1.409       .  A
C1838     Br1850   1.927   1_554  S
C1839     Br1854   1.929   1_554  S
C1840      C1843   1.479       .  S
C1840      C1841   1.403       .  A
C1841      C1842   1.405       .  A
C1841     Br1849   1.936       .  S
C1842     Br1853   1.924       .  S
C1843      C1844   1.408       .  A
C1844      C1845   1.406       .  A
C1844     Br1855   1.930       .  S
C1845      C1846   1.413       .  A
C1845     Br1851   1.933       .  S
C1847      C1848   1.406       .  A
C1847     Br1856   1.925       .  S
C1848     Br1852   1.929       .  S
C1857      C1858   1.409       .  A
C1857      C1862   1.414       .  A
C1858      C1859   1.402       .  A
C1858     Br1870   1.918       .  S
C1859      C1860   1.406       .  A
C1859     Br1874   1.930       .  S
C1860      C1863   1.481       .  S
C1860      C1861   1.405       .  A
C1861      C1862   1.406       .  A
C1863      C1864   1.402       .  A
C1863      C1868   1.404       .  A
C1865     Br1871   1.935       .  S
C1866      C1867   1.427       .  A
C1867      C1868   1.407       .  A
C1867     Br1876   1.938       .  S
C1868     Br1872   1.933       .  S
C1877      C1882   1.417       .  A
C1878      C1879   1.408       .  A
C1878     Br1890   1.931       .  S
C1879     Br1894   1.925       .  S
C1880      C1883   1.488       .  S
C1880      C1881   1.409       .  A
C1881      C1882   1.409       .  A
C1881     Br1889   1.931       .  S
C1882     Br1893   1.934       .  S
C1883      C1884   1.410       .  A
C1883      C1888   1.408       .  A
C1884      C1885   1.408       .  A
C1884     Br1895   1.932       .  S
C1885      C1886   1.413       .  A
C1885     Br1891   1.928       .  S
C1886      C1887   1.415       .  A
C1887      C1888   1.408       .  A
C1887     Br1896   1.925       .  S
C1888     Br1892   1.930       .  S
C1897      N1898   1.355       .  A
C1897      N1902   1.357       .  A
C1897      C2162   1.475       .  S
N1898      C1899   1.356       .  A
C1899      N1900   1.358   1_554  A
C1899      C2182   1.501       .  S
N1900      C1901   1.358   1_556  A
C1901      N1902   1.358       .  A
C1901      C2193   1.485       .  S
C1903      N1904   1.359       .  A
C1903      N1908   1.360       .  A
C1903      C2093   1.483       .  S
N1904      C1905   1.359       .  A
C1905      N1906   1.357       .  A
C1905      C2142   1.478       .  S
N1906      C1907   1.356       .  A
C1907      N1908   1.361       .  A
C1907      C2113   1.474       .  S
C1909      N1910   1.356       .  A
C1909      N1914   1.358       .  A
C1909      C2082   1.470       .  S
N1910      C1911   1.357       .  A
C1911      N1912   1.356       .  A
C1911      C2062   1.480       .  S
N1912      C1913   1.355       .  A
C1913      N1914   1.359       .  A
C1913      C2033   1.477       .  S
C1915      N1916   1.361       .  A
C1915      N1920   1.367       .  A
C1915      C2022   1.516       .  S
N1916      C1917   1.360       .  A
C1917      N1918   1.359       .  A
C1917      C1982   1.509       .  S
N1918      C1919   1.359       .  A
C1919      N1920   1.365       .  A
C1919      C2002   1.490       .  S
C1921      C2202   1.488       .  S
C1921      O1936   1.263       .  A
C1921      O1923   1.260       .  A
Tb1922     O1944   2.378       .  S
Tb1922     O1926   2.368       .  S
Tb1922     O1943   2.339       .  S
O1923     Tb1927   2.351       .  S
O1924      C1935   1.259   1_545  A
C1925      C2042   1.493       .  S
C1925      O1930   1.271       .  A
C1925      O1946   1.267       .  A
O1926      C1942   1.257       .  A
Tb1927     O1931   2.372       .  S
Tb1927     O1936   2.369       .  S
Tb1927     O1930   2.353       .  S
Tb1927     O1939   2.384       .  S
O1931      C1941   1.277   1_554  A
C1932      C2173   1.481       .  S
C1932      O1945   1.266       .  A
O1933      C1940   1.278       .  A
C1934      O1943   1.255       .  A
C1935      C2073   1.493       .  S
C1935      O1937   1.258       .  A
O1938      C1941   1.276   1_554  A
O1939      C1940   1.281       .  A
C1940      C1967   1.505       .  S
C1941      C2282   1.497       .  S
C1942      C2153   1.490       .  S
C1942      O1944   1.258       .  A
C1947      C2133   1.486       .  S
C1947      O1962   1.261       .  A
C1947      O1949   1.260       .  A
Tb1948     O1970   2.357       .  S
Tb1948     O1952   2.388       .  S
Tb1948     O1969   2.398       .  S
O1949     Tb1953   2.366       .  S
O1950      C1961   1.262       .  A
C1951      C1973   1.483       .  S
C1951      O1956   1.274       .  A
C1951      O1972   1.269       .  A
O1952      C1968   1.259       .  A
Tb1953     O1957   2.363       .  S
Tb1953     O1962   2.357       .  S
Tb1953     O1956   2.361       .  S
Tb1953     O1965   2.358       .  S
O1957      C1967   1.277       .  A
C1958      C2122   1.507       .  S
C1958      O1971   1.268       .  A
O1959      C1966   1.280       .  A
C1960      O1969   1.264       .  A
C1961      C2013   1.512       .  S
C1961      O1963   1.259       .  A
O1964      C1967   1.285       .  A
O1965      C1966   1.275       .  A
C1966      C2257   1.497       .  S
C1968      C2102   1.491       .  S
C1968      O1970   1.256       .  A
C1973      C1974   1.411       .  A
C1973      C1978   1.409       .  A
C1974      C1975   1.410       .  A
C1974     Br1986   1.924       .  S
C1975      C1976   1.409       .  A
C1975     Br1990   1.926       .  S
C1976      C1979   1.491       .  S
C1976      C1977   1.407       .  A
C1977      C1978   1.407       .  A
C1977     Br1985   1.923       .  S
C1978     Br1989   1.925       .  S
C1979      C1980   1.405       .  A
C1979      C1984   1.405       .  A
C1980      C1981   1.411       .  A
C1980     Br1991   1.935       .  S
C1981      C1982   1.426       .  A
C1981     Br1987   1.935       .  S
C1982      C1983   1.428       .  A
C1983      C1984   1.413       .  A
C1983     Br2308   1.933       .  S
C1984     Br1988   1.934       .  S
Br1992     C2299   1.933       .  S
C1993      C1994   1.418       .  A
C1994      C1995   1.416       .  A
C1994     Br2006   1.918       .  S
C1995      C1996   1.409       .  A
C1995     Br2010   1.930       .  S
C1996      C1999   1.501       .  S
C1996      C1997   1.407       .  A
C1998     Br2009   1.920       .  S
C1999      C2000   1.412       .  A
C1999      C2004   1.410       .  A
C2000      C2001   1.414       .  A
C2000     Br2011   1.927       .  S
C2001      C2002   1.411       .  A
C2001     Br2007   1.928       .  S
C2002      C2003   1.412       .  A
C2003      C2004   1.413       .  A
C2003     Br2328   1.926       .  S
C2004     Br2324   1.923       .  S
Br2008     C2320   1.923   1_554  S
Br2012     C2319   1.926   1_554  S
C2013      C2014   1.424       .  A
C2013      C2018   1.421       .  A
C2014      C2015   1.410       .  A
C2014     Br2026   1.920       .  S
C2015      C2016   1.403       .  A
C2015     Br2030   1.934       .  S
C2016      C2019   1.504       .  S
C2016      C2017   1.412       .  A
C2017      C2018   1.417       .  A
C2017     Br2025   1.921       .  S
C2018     Br2029   1.933       .  S
C2019      C2020   1.408       .  A
C2019      C2024   1.412       .  A
C2020      C2021   1.416       .  A
C2020     Br2031   1.930       .  S
C2021      C2022   1.427       .  A
C2021     Br2027   1.935       .  S
C2022      C2023   1.424       .  A
C2023      C2024   1.415       .  A
C2023     Br2032   1.933       .  S
C2024     Br2028   1.936       .  S
C2033      C2034   1.410       .  A
C2033      C2038   1.413       .  A
C2034      C2035   1.405       .  A
C2034     Br2046   1.930       .  S
C2035      C2036   1.412       .  A
C2035     Br2050   1.934       .  S
C2036      C2039   1.483       .  S
C2036      C2037   1.410       .  A
C2037      C2038   1.406       .  A
C2037     Br2045   1.932       .  S
C2038     Br2049   1.930       .  S
C2039      C2040   1.410       .  A
C2039      C2044   1.405       .  A
C2040      C2041   1.410       .  A
C2040     Br2051   1.931       .  S
C2041      C2042   1.418       .  A
C2041     Br2047   1.935       .  S
C2042      C2043   1.419       .  A
C2043      C2044   1.402       .  A
C2043     Br2052   1.917       .  S
C2044     Br2048   1.940       .  S
C2053      C2054   1.403       .  A
C2053      C2058   1.407       .  A
C2054      C2055   1.405       .  A
C2055      C2056   1.411       .  A
C2055     Br2070   1.929       .  S
C2056      C2059   1.477       .  S
C2056      C2057   1.406       .  A
C2057      C2058   1.402       .  A
C2057     Br2065   1.926       .  S
C2058     Br2069   1.928   1_565  S
C2059      C2060   1.408       .  A
C2059      C2064   1.404       .  A
C2060      C2061   1.404       .  A
C2061      C2062   1.417       .  A
C2061     Br2067   1.935       .  S
C2062      C2063   1.417       .  A
C2063      C2064   1.405       .  A
C2063     Br2072   1.932       .  S
C2064     Br2068   1.930       .  S
C2073      C2074   1.413       .  A
C2073      C2078   1.416       .  A
C2074      C2075   1.411       .  A
C2074     Br2086   1.923       .  S
C2075      C2076   1.410       .  A
C2075     Br2090   1.931       .  S
C2076      C2079   1.495       .  S
C2076      C2077   1.409       .  A
C2077      C2078   1.413       .  A
C2077     Br2085   1.930       .  S
C2079      C2080   1.412       .  A
C2079      C2084   1.412       .  A
C2080      C2081   1.408       .  A
C2080     Br2091   1.918       .  S
C2081      C2082   1.405       .  A
C2081     Br2087   1.931       .  S
C2082      C2083   1.406       .  A
C2083      C2084   1.406       .  A
C2083     Br2092   1.930       .  S
C2084     Br2088   1.921       .  S
C2093      C2094   1.413       .  A
C2093      C2098   1.412       .  A
C2094      C2095   1.407       .  A
C2094     Br2106   1.922       .  S
C2095      C2096   1.407       .  A
C2095     Br2110   1.930       .  S
C2096      C2099   1.487       .  S
C2096      C2097   1.408       .  A
C2097      C2098   1.410       .  A
C2097     Br2105   1.924       .  S
C2098     Br2109   1.929       .  S
C2099      C2100   1.409       .  A
C2099      C2104   1.406       .  A
C2100      C2101   1.413       .  A
C2100     Br2111   1.930       .  S
C2101      C2102   1.416       .  A
C2101     Br2107   1.930   1_655  S
C2102      C2103   1.418       .  A
C2103      C2104   1.405       .  A
C2103     Br2112   1.926       .  S
C2104     Br2108   1.936       .  S
C2113      C2114   1.409       .  A
C2113      C2118   1.406       .  A
C2114      C2115   1.410       .  A
C2114     Br2126   1.927       .  S
C2115      C2116   1.411       .  A
C2115     Br2130   1.923       .  S
C2116      C2119   1.489       .  S
C2116      C2117   1.410       .  A
C2117      C2118   1.403       .  A
C2117     Br2125   1.924       .  S
C2118     Br2129   1.926       .  S
C2119      C2120   1.405       .  A
C2119      C2124   1.409       .  A
C2120      C2121   1.405       .  A
C2120     Br2131   1.934       .  S
C2121      C2122   1.417       .  A
C2122      C2123   1.422       .  A
C2123      C2124   1.413       .  A
C2123     Br2132   1.933       .  S
C2124     Br2128   1.930       .  S
C2133      C2134   1.415       .  A
C2133      C2138   1.414       .  A
C2134      C2135   1.409       .  A
C2134     Br2146   1.926       .  S
C2135      C2136   1.408       .  A
C2135     Br2150   1.932       .  S
C2136      C2139   1.483       .  S
C2136      C2137   1.404       .  A
C2137      C2138   1.405       .  A
C2137     Br2145   1.927       .  S
C2138     Br2149   1.922       .  S
C2139      C2140   1.408       .  A
C2139      C2144   1.409       .  A
C2140      C2141   1.407       .  A
C2140     Br2151   1.931       .  S
C2141      C2142   1.411       .  A
C2141     Br2147   1.927       .  S
C2142      C2143   1.412       .  A
C2143      C2144   1.406       .  A
C2143     Br2152   1.929       .  S
C2144     Br2148   1.930       .  S
C2153      C2470   1.418       .  A
C2153      C2158   1.419       .  A
C2154      C2469   1.418       .  A
C2154      C2155   1.408       .  A
C2154     Br2166   1.928       .  S
C2155      C2472   1.405       .  A
C2155     Br2170   1.929       .  S
C2156      C2159   1.479       .  S
C2156      C2471   1.405       .  A
C2156      C2157   1.403       .  A
C2157      C2158   1.405       .  A
C2157     Br2165   1.936       .  S
C2158     Br2169   1.923       .  S
C2159      C2160   1.408       .  A
C2159      C2480   1.406   1_554  A
C2160      C2161   1.406       .  A
C2160     Br2171   1.930       .  S
C2161      C2162   1.412       .  A
C2161     Br2167   1.933       .  S
C2162      C2479   1.411   1_554  A
C2163      C2478   1.411       .  A
C2163      C2164   1.405       .  A
C2163     Br2172   1.925       .  S
C2164      C2475   1.406       .  A
C2164     Br2168   1.928       .  S
C2173      C2174   1.409       .  A
C2173      C2178   1.414       .  A
C2174      C2175   1.402       .  A
C2174     Br2186   1.917       .  S
C2175      C2176   1.406       .  A
C2175     Br2190   1.930       .  S
C2176      C2179   1.481       .  S
C2176      C2177   1.405       .  A
C2177      C2178   1.406       .  A
C2177     Br2501   1.920   1_554  S
C2178     Br2505   1.927   1_554  S
C2179      C2180   1.402   1_554  A
C2179      C2184   1.404       .  A
C2180      C2497   1.407       .  A
C2180     Br2507   1.936       .  S
C2181      C2496   1.407       .  A
C2181      C2498   1.428       .  A
C2181     Br2187   1.935       .  S
C2182      C2497   1.428   1_554  A
C2182      C2183   1.427       .  A
C2183      C2184   1.407       .  A
C2183     Br2192   1.938       .  S
C2184     Br2188   1.933       .  S
Br2185     C2493   1.920       .  S
Br2189     C2494   1.927       .  S
Br2191     C2496   1.936       .  S
C2193      C2510   1.414   1_554  A
C2193      C2198   1.417       .  A
C2194      C2509   1.414       .  A
C2194      C2195   1.407       .  A
C2194     Br2206   1.931       .  S
C2195      C2512   1.406       .  A
C2195     Br2210   1.926       .  S
C2196      C2199   1.488       .  S
C2196      C2511   1.406   1_554  A
C2196      C2197   1.409       .  A
C2197      C2198   1.409       .  A
C2197     Br2205   1.931       .  S
C2198     Br2209   1.934       .  S
C2199      C2200   1.410       .  A
C2199      C2204   1.408       .  A
C2200      C2201   1.408       .  A
C2200     Br2211   1.932       .  S
C2201      C2202   1.413       .  A
C2201     Br2207   1.928       .  S
C2202      C2203   1.415       .  A
C2203      C2204   1.408       .  A
C2203     Br2212   1.924       .  S
C2204     Br2208   1.930   1_554  S
C2213      N2214   1.355       .  A
C2213      N2218   1.357       .  A
C2213      C2478   1.475       .  S
N2214      C2215   1.356       .  A
C2215      N2216   1.358       .  A
C2215      C2498   1.501       .  S
N2216      C2217   1.358       .  A
C2217      N2218   1.358       .  A
C2217      C2509   1.485       .  S
C2219      N2220   1.359       .  A
C2219      N2224   1.360       .  A
C2219      C2409   1.483       .  S
N2220      C2221   1.359       .  A
C2221      N2222   1.357       .  A
C2221      C2458   1.478       .  S
N2222      C2223   1.356       .  A
C2223      N2224   1.361       .  A
C2223      C2429   1.474       .  S
C2225      N2226   1.356       .  A
C2225      N2230   1.358       .  A
C2225      C2398   1.470       .  S
N2226      C2227   1.357       .  A
C2227      N2228   1.356       .  A
C2227      C2378   1.480       .  S
N2228      C2229   1.355       .  A
C2229      N2230   1.359       .  A
C2229      C2349   1.477       .  S
C2231      N2232   1.361       .  A
C2231      N2236   1.367       .  A
C2231      C2338   1.516       .  S
N2232      C2233   1.360       .  A
C2233      N2234   1.359       .  A
C2233      C2298   1.509       .  S
N2234      C2235   1.359       .  A
C2235      N2236   1.365       .  A
C2235      C2318   1.490       .  S
C2237      C2518   1.488       .  S
C2237      O2252   1.263       .  A
C2237      O2239   1.260       .  A
Tb2238     O2260   2.378       .  S
Tb2238     O2242   2.368       .  S
Tb2238     O2259   2.339       .  S
O2239     Tb2243   2.351       .  S
O2240      C2251   1.259   1_545  A
C2241      C2358   1.493       .  S
C2241      O2246   1.271       .  A
C2241      O2262   1.267       .  A
O2242      C2258   1.257       .  A
Tb2243     O2247   2.372       .  S
Tb2243     O2252   2.369       .  S
Tb2243     O2246   2.353       .  S
Tb2243     O2255   2.384       .  S
O2247      C2257   1.277       .  A
C2248      C2489   1.481       .  S
C2248      O2261   1.266       .  A
O2249      C2256   1.278       .  A
C2250      O2259   1.255       .  A
C2251      C2389   1.493       .  S
C2251      O2253   1.258       .  A
O2254      C2257   1.276       .  A
O2255      C2256   1.281       .  A
C2256      C2283   1.505       .  S
C2258      C2469   1.490       .  S
C2258      O2260   1.258       .  A
C2263      C2449   1.486       .  S
C2263      O2278   1.261       .  A
C2263      O2265   1.260       .  A
Tb2264     O2286   2.357       .  S
Tb2264     O2268   2.388       .  S
Tb2264     O2285   2.398       .  S
O2265     Tb2269   2.366       .  S
O2266      C2277   1.262       .  A
C2267      C2289   1.483       .  S
C2267      O2272   1.274       .  A
C2267      O2288   1.269       .  A
O2268      C2284   1.259       .  A
Tb2269     O2273   2.363       .  S
Tb2269     O2278   2.357       .  S
Tb2269     O2272   2.361       .  S
Tb2269     O2281   2.358       .  S
O2273      C2283   1.277       .  A
C2274      C2438   1.507       .  S
C2274      O2287   1.268       .  A
O2275      C2282   1.280       .  A
C2276      O2285   1.264       .  A
C2277      C2329   1.512       .  S
C2277      O2279   1.259       .  A
O2280      C2283   1.285       .  A
O2281      C2282   1.275       .  A
C2284      C2418   1.491       .  S
C2284      O2286   1.256       .  A
C2289      C2290   1.411       .  A
C2289      C2294   1.409       .  A
C2290      C2291   1.410       .  A
C2290     Br2302   1.924       .  S
C2291      C2292   1.409       .  A
C2291     Br2306   1.926   1_556  S
C2292      C2295   1.491       .  S
C2292      C2293   1.407       .  A
C2293      C2294   1.407       .  A
C2293     Br2301   1.923       .  S
C2294     Br2305   1.925       .  S
C2295      C2296   1.405       .  A
C2295      C2300   1.405       .  A
C2296      C2297   1.411       .  A
C2296     Br2307   1.935       .  S
C2297      C2298   1.426       .  A
C2297     Br2303   1.935       .  S
C2298      C2299   1.428       .  A
C2299      C2300   1.413       .  A
C2300     Br2304   1.934       .  S
C2309      C2310   1.418       .  A
C2310      C2311   1.416       .  A
C2310     Br2322   1.918       .  S
C2311      C2312   1.409       .  A
C2311     Br2326   1.930       .  S
C2312      C2315   1.501       .  S
C2312      C2313   1.407       .  A
C2314     Br2325   1.920       .  S
C2315      C2316   1.412       .  A
C2315      C2320   1.410       .  A
C2316      C2317   1.414       .  A
C2316     Br2327   1.927       .  S
C2317      C2318   1.411       .  A
C2317     Br2323   1.928       .  S
C2318      C2319   1.412       .  A
C2319      C2320   1.413       .  A
C2329      C2330   1.424       .  A
C2329      C2334   1.421       .  A
C2330      C2331   1.410       .  A
C2330     Br2342   1.920       .  S
C2331      C2332   1.403       .  A
C2331     Br2346   1.934       .  S
C2332      C2335   1.504       .  S
C2332      C2333   1.412       .  A
C2333      C2334   1.417       .  A
C2333     Br2341   1.921   1_556  S
C2334     Br2345   1.933       .  S
C2335      C2336   1.408       .  A
C2335      C2340   1.412       .  A
C2336      C2337   1.416       .  A
C2336     Br2347   1.930       .  S
C2337      C2338   1.427       .  A
C2337     Br2343   1.935   1_556  S
C2338      C2339   1.424       .  A
C2339      C2340   1.415       .  A
C2339     Br2348   1.933       .  S
C2340     Br2344   1.936       .  S
C2349      C2350   1.410       .  A
C2349      C2354   1.413       .  A
C2350      C2351   1.405       .  A
C2350     Br2362   1.930       .  S
C2351      C2352   1.412       .  A
C2351     Br2366   1.934       .  S
C2352      C2355   1.483       .  S
C2352      C2353   1.410       .  A
C2353      C2354   1.406       .  A
C2353     Br2361   1.932       .  S
C2354     Br2365   1.930       .  S
C2355      C2356   1.410       .  A
C2355      C2360   1.405       .  A
C2356      C2357   1.410       .  A
C2356     Br2367   1.931       .  S
C2357      C2358   1.418       .  A
C2357     Br2363   1.935       .  S
C2358      C2359   1.419       .  A
C2359      C2360   1.402       .  A
C2359     Br2368   1.917       .  S
C2360     Br2364   1.940       .  S
C2369      C2370   1.403       .  A
C2369      C2374   1.407       .  A
C2370      C2371   1.405       .  A
C2371      C2372   1.411       .  A
C2371     Br2386   1.929       .  S
C2372      C2375   1.477       .  S
C2372      C2373   1.406       .  A
C2373      C2374   1.402       .  A
C2373     Br2381   1.926       .  S
C2374     Br2385   1.928   1_565  S
C2375      C2376   1.408       .  A
C2375      C2380   1.404       .  A
C2376      C2377   1.404       .  A
C2377      C2378   1.417       .  A
C2377     Br2383   1.935       .  S
C2378      C2379   1.417       .  A
C2379      C2380   1.405       .  A
C2379     Br2388   1.932       .  S
C2380     Br2384   1.930       .  S
C2389      C2390   1.413       .  A
C2389      C2394   1.416       .  A
C2390      C2391   1.411       .  A
C2390     Br2402   1.923       .  S
C2391      C2392   1.410       .  A
C2391     Br2406   1.931       .  S
C2392      C2395   1.495       .  S
C2392      C2393   1.409       .  A
C2393      C2394   1.413       .  A
C2393     Br2401   1.930       .  S
C2395      C2396   1.412       .  A
C2395      C2400   1.412       .  A
C2396      C2397   1.408       .  A
C2396     Br2407   1.918       .  S
C2397      C2398   1.405       .  A
C2397     Br2403   1.931       .  S
C2398      C2399   1.406       .  A
C2399      C2400   1.406       .  A
C2399     Br2408   1.930       .  S
C2400     Br2404   1.921       .  S
C2409      C2410   1.413       .  A
C2409      C2414   1.412       .  A
C2410      C2411   1.407       .  A
C2410     Br2422   1.922       .  S
C2411      C2412   1.407       .  A
C2411     Br2426   1.930       .  S
C2412      C2415   1.487       .  S
C2412      C2413   1.408       .  A
C2413      C2414   1.410       .  A
C2413     Br2421   1.924       .  S
C2414     Br2425   1.929       .  S
C2415      C2416   1.409       .  A
C2415      C2420   1.406       .  A
C2416      C2417   1.413       .  A
C2416     Br2427   1.930       .  S
C2417      C2418   1.416       .  A
C2417     Br2423   1.930   1_655  S
C2418      C2419   1.418       .  A
C2419      C2420   1.405       .  A
C2419     Br2428   1.926       .  S
C2420     Br2424   1.936       .  S
C2429      C2430   1.409       .  A
C2429      C2434   1.406       .  A
C2430      C2431   1.410       .  A
C2430     Br2442   1.927       .  S
C2431      C2432   1.411       .  A
C2431     Br2446   1.923       .  S
C2432      C2435   1.489       .  S
C2432      C2433   1.410       .  A
C2433      C2434   1.403       .  A
C2433     Br2441   1.924       .  S
C2434     Br2445   1.926       .  S
C2435      C2436   1.405       .  A
C2435      C2440   1.409       .  A
C2436      C2437   1.405       .  A
C2436     Br2447   1.934       .  S
C2437      C2438   1.417       .  A
C2438      C2439   1.422       .  A
C2439      C2440   1.413       .  A
C2439     Br2448   1.933       .  S
C2440     Br2444   1.930       .  S
C2449      C2450   1.415       .  A
C2449      C2454   1.414       .  A
C2450      C2451   1.409       .  A
C2450     Br2462   1.926       .  S
C2451      C2452   1.408       .  A
C2451     Br2466   1.932       .  S
C2452      C2455   1.483       .  S
C2452      C2453   1.404       .  A
C2453      C2454   1.405       .  A
C2453     Br2461   1.927       .  S
C2454     Br2465   1.922       .  S
C2455      C2456   1.408       .  A
C2455      C2460   1.409       .  A
C2456      C2457   1.407       .  A
C2456     Br2467   1.931       .  S
C2457      C2458   1.411       .  A
C2457     Br2463   1.927       .  S
C2458      C2459   1.412       .  A
C2459      C2460   1.406       .  A
C2459     Br2468   1.929       .  S
C2460     Br2464   1.930       .  S
C2469      C2474   1.419       .  A
C2470      C2471   1.408       .  A
C2470     Br2482   1.928   1_554  S
C2471     Br2486   1.929   1_554  S
C2472      C2475   1.479       .  S
C2472      C2473   1.403       .  A
C2473      C2474   1.405       .  A
C2473     Br2481   1.936       .  S
C2474     Br2485   1.923       .  S
C2475      C2476   1.408       .  A
C2476      C2477   1.406       .  A
C2476     Br2487   1.930       .  S
C2477      C2478   1.412       .  A
C2477     Br2483   1.933       .  S
C2479      C2480   1.405       .  A
C2479     Br2488   1.925       .  S
C2480     Br2484   1.928       .  S
C2489      C2490   1.409       .  A
C2489      C2494   1.414       .  A
C2490      C2491   1.402       .  A
C2490     Br2502   1.917       .  S
C2491      C2492   1.406       .  A
C2491     Br2506   1.930       .  S
C2492      C2495   1.481       .  S
C2492      C2493   1.405       .  A
C2493      C2494   1.406       .  A
C2495      C2496   1.402       .  A
C2495      C2500   1.404       .  A
C2497     Br2503   1.935       .  S
C2498      C2499   1.427       .  A
C2499      C2500   1.407       .  A
C2499     Br2508   1.938       .  S
C2500     Br2504   1.933       .  S
C2509      C2514   1.417       .  A
C2510      C2511   1.407       .  A
C2510     Br2522   1.931       .  S
C2511     Br2526   1.926       .  S
C2512      C2515   1.488       .  S
C2512      C2513   1.409       .  A
C2513      C2514   1.409       .  A
C2513     Br2521   1.931       .  S
C2514     Br2525   1.934       .  S
C2515      C2516   1.410       .  A
C2515      C2520   1.408       .  A
C2516      C2517   1.408       .  A
C2516     Br2527   1.932       .  S
C2517      C2518   1.413       .  A
C2517     Br2523   1.928       .  S
C2518      C2519   1.415       .  A
C2519      C2520   1.408       .  A
C2519     Br2528   1.924       .  S
C2520     Br2524   1.930       .  S
