geometry optimzed in LAMMPS
_audit_creation_date              2020-11-30 
_audit_creation_method            'lammps2cif' 
_symmetry_space_group_name_H-M    'P1' 
_symmetry_Int_Tables_number       1 
_symmetry_cell_setting            triclinic 
loop_ 
_symmetry_equiv_pos_as_xyz 
  x,y,z 
_cell_length_a                    29.75533694288141 
_cell_length_b                    30.075420062221912 
_cell_length_c                    26.135932833539144 
_cell_angle_alpha                 79.54438635369736 
_cell_angle_beta                  92.03462117841808 
_cell_angle_gamma                 89.85830455010817 
loop_ 
_atom_site_label 
_atom_site_type_symbol 
_atom_site_fract_x 
_atom_site_fract_y 
_atom_site_fract_z 
_atom_site_charge 
O1          O  0.28712699  0.06349070  0.99077432    -0.71780
O2          O  0.28735406  0.93515634  0.51477749    -0.71990
O3          O  0.28723040  0.99996952  0.43013384    -0.71850
O4          O  0.28722121  0.99869212  0.07545214    -0.71860
O5          O  0.21409498  0.99923560  0.07234627    -0.71820
O6          O  0.21410453  0.00048355  0.42711232    -0.71840
O7          O  0.21434031  0.93564358  0.01178370    -0.71780
O8          O  0.21411030  0.06405599  0.48772659    -0.71970
V9          V  0.28580968  0.99933398  0.50273206     1.35240
V10         V  0.21558463  0.99984296  0.49979740     1.35170
C11         C  0.25059936  0.08567509  0.98638269     0.77460
C12         C  0.25090689  0.91349792  0.51613275     0.77520
C13         C  0.25064969  0.99981057  0.40412982     0.77390
C14         C  0.25063622  0.99941936  0.09838034     0.77350
O15         O  0.21382548  0.06409436  0.23833294    -0.71780
O16         O  0.21414292  0.93579214  0.26109102    -0.71990
O17         O  0.21400976  0.99877315  0.32247054    -0.71850
O18         O  0.21399018  0.00108899  0.17695156    -0.71860
O19         O  0.28711676  0.00058768  0.18003619    -0.71820
O20         O  0.28713586  0.99830059  0.32547087    -0.71840
O21         O  0.28716045  0.93527352  0.26410575    -0.71780
O22         O  0.28684280  0.06364064  0.24129804    -0.71970
V23         V  0.21541466  0.99993036  0.24977199     1.35240
V24         V  0.28564070  0.99946322  0.25268242     1.35170
C25         C  0.25026326  0.08575773  0.23710505     0.77460
C26         C  0.25068489  0.91365341  0.26518221     0.77520
C27         C  0.25059374  0.99884588  0.34848817     0.77390
C28         C  0.25057237  0.00048595  0.15398945     0.77350
C29         C  0.29145602  0.20411599  0.49042802     0.03130
C30         C  0.29130693  0.15853943  0.48522975    -0.13020
C31         C  0.25058179  0.13529159  0.48319016     0.00630
C32         C  0.20989146  0.15894972  0.48377804    -0.11540
C33         C  0.20970727  0.20438792  0.48983667     0.03120
C34         C  0.25069824  0.22667822  0.49364563    -0.10960
H35         H  0.32308023  0.14096660  0.48465823     0.08720
H36         H  0.17815856  0.14162065  0.48180270     0.06250
H37         H  0.25092680  0.26142847  0.49956834     0.06100
C38         C  0.20949730  0.20460237  0.24004331     0.03130
C39         C  0.20944420  0.15885849  0.23553237    -0.13020
C40         C  0.25010489  0.13536274  0.23397119     0.00630
C41         C  0.29081779  0.15882317  0.23477633    -0.11540
C42         C  0.29116964  0.20448902  0.23979130     0.03120
C43         C  0.25038623  0.22719321  0.24267126    -0.10960
H44         H  0.17766921  0.14135250  0.23519798     0.08720
H45         H  0.32251660  0.14126838  0.23360845     0.06250
H46         H  0.25048407  0.26218573  0.24769892     0.06100
C47         C  0.29174330  0.79496057  0.51193377     0.03130
C48         C  0.29172873  0.84045336  0.51757024    -0.13020
C49         C  0.25106012  0.86388508  0.51927112     0.00630
C50         C  0.21036036  0.84048378  0.51797086    -0.11540
C51         C  0.21002932  0.79502854  0.51208217     0.03120
C52         C  0.25082453  0.77249148  0.50872244    -0.10960
H53         H  0.32348609  0.85793774  0.51833151     0.08720
H54         H  0.17865017  0.85800191  0.51920144     0.06250
H55         H  0.25070510  0.73776262  0.50271958     0.06100
C56         C  0.29149305  0.79503733  0.26118755     0.03130
C57         C  0.29141495  0.84056928  0.26671037    -0.13020
C58         C  0.25073244  0.86410417  0.26787424     0.00630
C59         C  0.20999672  0.84082155  0.26598507    -0.11540
C60         C  0.20981062  0.79520690  0.26089870     0.03120
C61         C  0.25057481  0.77251379  0.25810428    -0.10960
H62         H  0.32317242  0.85799673  0.26787442     0.08720
H63         H  0.17822895  0.85840846  0.26653995     0.06250
H64         H  0.25042061  0.73762962  0.25266768     0.06100
C65         C  0.04117651  0.70495864  0.98798256     0.03130
C66         C  0.00038602  0.72750592  0.99133755    -0.13020
C67         C  0.45946201  0.70505047  0.98810872     0.00630
C68         C  0.45946490  0.65956264  0.98245584    -0.11540
C69         C  0.00012687  0.63611892  0.98076097     0.03120
C70         C  0.04083454  0.65950478  0.98208512    -0.10960
H71         H  0.00051303  0.76223261  0.99734820     0.08720
H72         H  0.42770188  0.64209018  0.98167933     0.06250
H73         H  0.07254003  0.64197721  0.98085933     0.06100
C74         C  0.04124683  0.70480901  0.23913256     0.03130
C75         C  0.00048071  0.72749197  0.24194685    -0.13020
C76         C  0.45956538  0.70496123  0.23887185     0.00630
C77         C  0.45964949  0.65943020  0.23334209    -0.11540
C78         C  0.00033596  0.63590698  0.23215423     0.03120
C79         C  0.04106691  0.65919855  0.23403243    -0.10960
H80         H  0.00063120  0.76237428  0.24739040     0.08720
H81         H  0.42789545  0.64199568  0.23218524     0.06250
H82         H  0.07283760  0.64162071  0.23346071     0.06100
C83         C  0.04132241  0.29560991  0.01014601     0.03130
C84         C  0.00032631  0.27333133  0.00632892    -0.13020
C85         C  0.45957350  0.29590498  0.00953956     0.00630
C86         C  0.45973437  0.34148229  0.01473975    -0.11540
C87         C  0.00046738  0.36471600  0.01679479     0.03120
C88         C  0.04115020  0.34104529  0.01621205    -0.10960
H89         H  0.00009184  0.23858201  0.50040470     0.08720
H90         H  0.42796617  0.35906528  0.01530587     0.06250
H91         H  0.07288858  0.35836350  0.01819465     0.06100
C92         C  0.04169948  0.29543614  0.25986488     0.03130
C93         C  0.00081565  0.27283658  0.25723264    -0.13020
C94         C  0.46002790  0.29552646  0.26013324     0.00630
C95         C  0.46036866  0.34118435  0.26517732    -0.11540
C96         C  0.00107444  0.36465481  0.26598693     0.03120
C97         C  0.04174158  0.34117522  0.26439997    -0.10960
H98         H  0.00072511  0.23784809  0.25218950     0.08720
H99         H  0.42866527  0.35872656  0.26636285     0.06250
H100        H  0.07351159  0.35868945  0.26473826     0.06100
O101        O  0.03681663  0.56434312  0.98823217    -0.71780
O102        O  0.03697248  0.43593320  0.51227669    -0.71990
O103        O  0.03702694  0.50075495  0.42766235    -0.71850
O104        O  0.03701256  0.49950346  0.07289644    -0.71860
O105        O  0.46388664  0.50005552  0.06986528    -0.71820
O106        O  0.46390069  0.50133329  0.42454653    -0.71840
O107        O  0.46395613  0.43653441  0.00922017    -0.71780
O108        O  0.46379808  0.56486812  0.48522544    -0.71970
V109        V  0.03553449  0.50014547  0.00021154     1.35240
V110        V  0.46530940  0.50069062  0.99726686     1.35170
C111        C  0.00025861  0.58650791  0.98388250     0.77460
C112        C  0.00047213  0.41433110  0.01361268     0.77520
C113        C  0.00048627  0.50058791  0.40162342     0.77390
C114        C  0.00046727  0.50019878  0.09587336     0.77350
O115        O  0.46430787  0.43635780  0.25869778    -0.71780
O116        O  0.46393217  0.56472513  0.23591069    -0.71990
O117        O  0.46398248  0.50170506  0.17453415    -0.71850
O118        O  0.46400640  0.49940307  0.31997149    -0.71860
O119        O  0.03713288  0.49893346  0.32304805    -0.71820
O120        O  0.03710850  0.50125889  0.17752653    -0.71840
O121        O  0.03694965  0.56423541  0.23891321    -0.71780
O122        O  0.03732514  0.43593444  0.26165687    -0.71970
V123        V  0.46548045  0.50053544  0.24732390     1.35240
V124        V  0.03570643  0.50009741  0.25022604     1.35170
C125        C  0.00089679  0.41425660  0.26287900     0.77460
C126        C  0.00039919  0.58635933  0.23483314     0.77520
C127        C  0.00052395  0.50117068  0.15151337     0.77390
C128        C  0.00055085  0.49952041  0.34601434     0.77350
C129        C  0.15124661  0.73989675  0.29706171    -0.01840
C130        C  0.16670343  0.77197046  0.25536885     0.07840
C131        C  0.14097294  0.78201216  0.20827901    -0.01960
C132        C  0.09981048  0.76011777  0.20296652    -0.01960
C133        C  0.08435186  0.72804810  0.24466154     0.07970
C134        C  0.11008347  0.71800395  0.29174977    -0.02160
Br135      Br  0.08834695  0.67497627  0.34941994    -0.00700
Br136      Br  0.18610181  0.72656440  0.36176250    -0.00780
Br137      Br  0.06496229  0.77343446  0.13825948    -0.00740
Br138      Br  0.16271349  0.82503107  0.15060390    -0.00720
C139        C  0.35029799  0.73614823  0.29469700    -0.01840
C140        C  0.33444007  0.77181851  0.25548034     0.07840
C141        C  0.35969701  0.78552887  0.21070835    -0.01960
C142        C  0.40076022  0.76385018  0.20536646    -0.01960
C143        C  0.41661649  0.72817687  0.24458068     0.07970
C144        C  0.39135961  0.71446671  0.28935308    -0.02160
Br145      Br  0.41390009  0.66717851  0.34457457    -0.00700
Br146      Br  0.31646949  0.71773839  0.35655820    -0.00780
Br147      Br  0.43459547  0.78227286  0.14351285    -0.00740
Br148      Br  0.33715574  0.83281623  0.15548555    -0.00720
C149        C  0.13840037  0.78648965  0.46165556    -0.01840
C150        C  0.16678775  0.77194496  0.50601817     0.07840
C151        C  0.15390899  0.73534458  0.04431073    -0.01960
C152        C  0.11280948  0.71349157  0.03840887    -0.01960
C153        C  0.08442218  0.72803604  0.99404584     0.07970
C154        C  0.09730031  0.76463816  0.45575484    -0.02160
Br155      Br  0.05941742  0.78408354  0.39421437    -0.00700
Br156      Br  0.15656925  0.83522760  0.40764411    -0.00780
Br157      Br  0.09463914  0.66475577  0.09242087    -0.00740
Br158      Br  0.19178736  0.71590943  0.10585725    -0.00720
C159        C  0.35157394  0.73731676  0.04581654    -0.01840
C160        C  0.33460786  0.77179510  0.50586364     0.07840
C161        C  0.35865386  0.78435552  0.45997860    -0.01960
C162        C  0.39963463  0.76269702  0.45422595    -0.01960
C163        C  0.41660194  0.72822167  0.99418072     0.07970
C164        C  0.39255614  0.71566076  0.04006515    -0.02160
Br165      Br  0.41658355  0.66981817  0.09593117    -0.00700
Br166      Br  0.31925616  0.72041356  0.10901939    -0.00780
Br167      Br  0.43194568  0.77958584  0.39101594    -0.00740
Br168      Br  0.33462610  0.83019482  0.40410963    -0.00720
C169        C  0.36314226  0.21400063  0.28915703    -0.01840
C170        C  0.33441649  0.22780503  0.24491111     0.07840
C171        C  0.34696524  0.26389708  0.20578323    -0.01960
C172        C  0.38805881  0.28601329  0.21076588    -0.01960
C173        C  0.41678555  0.27220584  0.25500934     0.07970
C174        C  0.40423603  0.23611675  0.29413885    -0.02160
Br175      Br  0.44260827  0.21777264  0.35554251    -0.00700
Br176      Br  0.34549791  0.16589151  0.34419412    -0.00780
Br177      Br  0.40569901  0.33413395  0.15573886    -0.00740
Br178      Br  0.30858990  0.28225293  0.14438452    -0.00720
C179        C  0.14420090  0.21910872  0.29243184    -0.01840
C180        C  0.16667196  0.22808849  0.24512076     0.07840
C181        C  0.14810821  0.25914053  0.20270214    -0.01960
C182        C  0.10700223  0.28093973  0.20747605    -0.01960
C183        C  0.08453011  0.27195848  0.25478667     0.07970
C184        C  0.10309239  0.24090329  0.29720333    -0.02160
Br185      Br  0.07239973  0.22861133  0.36196076    -0.00700
Br186      Br  0.17041623  0.17770706  0.35105547    -0.00780
Br187      Br  0.08078975  0.32234529  0.14885532    -0.00740
Br188      Br  0.17878969  0.27141247  0.13793580    -0.00720
C189        C  0.40181774  0.24002948  0.04658336    -0.01840
C190        C  0.41651392  0.27242598  0.00471418     0.07840
C191        C  0.39016092  0.28238727  0.45809624    -0.01960
C192        C  0.34920958  0.25999296  0.45338207    -0.01960
C193        C  0.33451113  0.22760122  0.49525397     0.07970
C194        C  0.36086582  0.21763678  0.04186988    -0.02160
Br195      Br  0.34032610  0.17397587  0.09971116    -0.00700
Br196      Br  0.43726953  0.22703215  0.11084786    -0.00780
Br197      Br  0.31376817  0.27296942  0.38910832    -0.00740
Br198      Br  0.41070753  0.32603598  0.40024858    -0.00720
C199        C  0.11224295  0.28839636  0.46308515    -0.01840
C200        C  0.08441060  0.27217611  0.00499602     0.07840
C201        C  0.09779779  0.23361493  0.04177033    -0.01960
C202        C  0.13878099  0.21159538  0.03689390    -0.01960
C203        C  0.16661416  0.22781590  0.49498314     0.07970
C204        C  0.15322776  0.26637938  0.45821082    -0.02160
Br205      Br  0.18993948  0.28832444  0.39963493    -0.00700
Br206      Br  0.09326234  0.33938358  0.41029897    -0.00780
Br207      Br  0.15775993  0.16060866  0.08968072    -0.00740
Br208      Br  0.06109156  0.21168239  0.10035475    -0.00720
O209        O  0.28712682  0.06349068  0.49077439    -0.71780
O210        O  0.28735642  0.93515641  0.01477759    -0.71990
O211        O  0.28723154  0.99996955  0.93013380    -0.71850
O212        O  0.28722003  0.99869200  0.57545206    -0.71860
O213        O  0.21409380  0.99923687  0.57234604    -0.71820
O214        O  0.21410568  0.00048257  0.92711265    -0.71840
O215        O  0.21433795  0.93564479  0.51178356    -0.71780
O216        O  0.21411047  0.06405488  0.98772701    -0.71970
V217        V  0.28581090  0.99933402  0.00273209     1.35240
V218        V  0.21558585  0.99984182  0.99979768     1.35170
C219        C  0.25059951  0.08567564  0.48638250     0.77460
C220        C  0.25090965  0.91349736  0.01613281     0.77520
C221        C  0.25065078  0.99981016  0.90412995     0.77390
C222        C  0.25063510  0.99941986  0.59838020     0.77350
O223        O  0.21382546  0.06409432  0.73833358    -0.71780
O224        O  0.21414296  0.93579211  0.76109115    -0.71990
O225        O  0.21401039  0.99877284  0.82247097    -0.71850
O226        O  0.21398956  0.00108925  0.67695184    -0.71860
O227        O  0.28711613  0.00058776  0.68003581    -0.71820
O228        O  0.28713648  0.99830058  0.82547056    -0.71840
O229        O  0.28716049  0.93527355  0.76410540    -0.71780
O230        O  0.28684278  0.06364066  0.74129771    -0.71970
V231        V  0.21541466  0.99993033  0.74977236     1.35240
V232        V  0.28564070  0.99946325  0.75268208     1.35170
C233        C  0.25026323  0.08575771  0.73710522     0.77460
C234        C  0.25068493  0.91365341  0.76518213     0.77520
C235        C  0.25059454  0.99884563  0.84848826     0.77390
C236        C  0.25057156  0.00048623  0.65398937     0.77350
C237        C  0.29145465  0.20411577  0.99042835     0.03130
C238        C  0.29130596  0.15853925  0.98522998    -0.13020
C239        C  0.25058104  0.13529103  0.98319039     0.00630
C240        C  0.20989049  0.15894878  0.98377829    -0.11540
C241        C  0.20970590  0.20438699  0.98983691     0.03120
C242        C  0.25069668  0.22667764  0.99364595    -0.10960
H243        H  0.32307943  0.14096672  0.98465843     0.08720
H244        H  0.17815776  0.14161942  0.98180292     0.06250
H245        H  0.25092492  0.26142788  0.99956870     0.06100
C246        C  0.20949734  0.20460238  0.74004338     0.03130
C247        C  0.20944422  0.15885849  0.73553250    -0.13020
C248        C  0.25010490  0.13536272  0.73397134     0.00630
C249        C  0.29081781  0.15882314  0.73477642    -0.11540
C250        C  0.29116968  0.20448901  0.73979132     0.03120
C251        C  0.25038628  0.22719322  0.74267128    -0.10960
H252        H  0.17766922  0.14135252  0.73519812     0.08720
H253        H  0.32251661  0.14126834  0.73360855     0.06250
H254        H  0.25048413  0.26218575  0.74769888     0.06100
C255        C  0.29174833  0.79496074  0.01193366     0.03130
C256        C  0.29173290  0.84045351  0.01757024    -0.13020
C257        C  0.25106384  0.86388452  0.01927101     0.00630
C258        C  0.21036452  0.84048254  0.01797046    -0.11540
C259        C  0.21003436  0.79502734  0.01208158     0.03120
C260        C  0.25082999  0.77249099  0.00872202    -0.10960
H261        H  0.32348995  0.85793843  0.01833174     0.08720
H262        H  0.17865400  0.85800012  0.01920090     0.06250
H263        H  0.25071121  0.73776215  0.00271905     0.06100
C264        C  0.29149309  0.79503728  0.76118780     0.03130
C265        C  0.29141500  0.84056927  0.76671043    -0.13020
C266        C  0.25073250  0.86410415  0.76787432     0.00630
C267        C  0.20999679  0.84082149  0.76598533    -0.11540
C268        C  0.20981066  0.79520681  0.76089901     0.03120
C269        C  0.25057487  0.77251370  0.75810465    -0.10960
H270        H  0.32317247  0.85799676  0.76787429     0.08720
H271        H  0.17822902  0.85840840  0.76654024     0.06250
H272        H  0.25042070  0.73762951  0.75266811     0.06100
C273        C  0.04117148  0.70495984  0.48798315     0.03130
C274        C  0.00038056  0.72750641  0.49133798    -0.13020
C275        C  0.45945698  0.70505031  0.48810883     0.00630
C276        C  0.45946072  0.65956249  0.48245584    -0.11540
C277        C  0.00012315  0.63611948  0.48076109     0.03120
C278        C  0.04083037  0.65950602  0.48208554    -0.10960
H279        H  0.00050692  0.76223307  0.49734873     0.08720
H280        H  0.42769802  0.64208950  0.48167909     0.06250
H281        H  0.07253620  0.64197901  0.48085988     0.06100
C282        C  0.04124672  0.70480911  0.73913223     0.03130
C283        C  0.00048058  0.72749206  0.74194645    -0.13020
C284        C  0.45956527  0.70496127  0.73887159     0.00630
C285        C  0.45964937  0.65943020  0.73334203    -0.11540
C286        C  0.00033585  0.63590699  0.73215415     0.03120
C287        C  0.04106679  0.65919862  0.73403215    -0.10960
H288        H  0.00063103  0.76237439  0.74738994     0.08720
H289        H  0.42789534  0.64199565  0.73218538     0.06250
H290        H  0.07283747  0.64162078  0.73346041     0.06100
C291        C  0.04132378  0.29561084  0.51014575     0.03130
C292        C  0.00032788  0.27333192  0.50632858    -0.13020
C293        C  0.45957487  0.29590521  0.50953925     0.00630
C294        C  0.45973533  0.34148247  0.51473953    -0.11540
C295        C  0.00046813  0.36471656  0.51679456     0.03120
C296        C  0.04115117  0.34104623  0.51621179    -0.10960
H297        H  0.00008997  0.23858142  0.00040507     0.08720
H298        H  0.42796697  0.35906516  0.51530568     0.06250
H299        H  0.07288938  0.35836473  0.51819443     0.06100
C300        C  0.04169947  0.29543613  0.75986478     0.03130
C301        C  0.00081563  0.27283657  0.75723259    -0.13020
C302        C  0.46002789  0.29552647  0.76013315     0.00630
C303        C  0.46036866  0.34118438  0.76517718    -0.11540
C304        C  0.00107444  0.36465482  0.76598677     0.03120
C305        C  0.04174158  0.34117522  0.76439981    -0.10960
H306        H  0.00072508  0.23784807  0.75218949     0.08720
H307        H  0.42866527  0.35872659  0.76636269     0.06250
H308        H  0.07351159  0.35868945  0.76473810     0.06100
O309        O  0.03681426  0.56434432  0.48823204    -0.71780
O310        O  0.03697265  0.43593209  0.01227710    -0.71990
O311        O  0.03702812  0.50075368  0.92766258    -0.71850
O312        O  0.03701141  0.49950444  0.57289612    -0.71860
O313        O  0.46388549  0.50005550  0.56986531    -0.71820
O314        O  0.46390187  0.50133340  0.92454662    -0.71840
O315        O  0.46395595  0.43653441  0.50922022    -0.71780
O316        O  0.46380045  0.56486819  0.98522554    -0.71970
V317        V  0.03553327  0.50014660  0.50021127     1.35240
V318        V  0.46530817  0.50069060  0.49726682     1.35170
C319        C  0.00025585  0.58650848  0.48388245     0.77460
C320        C  0.00047228  0.41433165  0.51361249     0.77520
C321        C  0.00048738  0.50058740  0.90162356     0.77390
C322        C  0.00046617  0.50019920  0.59587324     0.77350
O323        O  0.46430789  0.43635777  0.75869810    -0.71780
O324        O  0.46393209  0.56472509  0.73591105    -0.71990
O325        O  0.46398184  0.50170507  0.67453445    -0.71850
O326        O  0.46400701  0.49940298  0.81997187    -0.71860
O327        O  0.03713349  0.49893319  0.82304776    -0.71820
O328        O  0.03710786  0.50125921  0.67752610    -0.71840
O329        O  0.03694958  0.56423544  0.73891308    -0.71780
O330        O  0.03732516  0.43593449  0.76165622    -0.71970
V331        V  0.46548043  0.50053541  0.74732424     1.35240
V332        V  0.03570642  0.50009744  0.75022567     1.35170
C333        C  0.00089681  0.41425661  0.76287882     0.77460
C334        C  0.00039911  0.58635933  0.73483322     0.77520
C335        C  0.00052313  0.50117092  0.65151328     0.77390
C336        C  0.00055165  0.49952012  0.84601442     0.77350
C337        C  0.15124732  0.73989539  0.79706107    -0.01840
C338        C  0.16670343  0.77197041  0.75536899     0.07840
C339        C  0.14097219  0.78201345  0.70827978    -0.01960
C340        C  0.09980970  0.76011915  0.70296715    -0.01960
C341        C  0.08435178  0.72804817  0.74466137     0.07970
C342        C  0.11008414  0.71800268  0.79174899    -0.02160
Br343      Br  0.08834852  0.67497345  0.84941833    -0.00700
Br344      Br  0.18610343  0.72656118  0.86176109    -0.00780
Br345      Br  0.06496059  0.77343770  0.63826087    -0.00740
Br346      Br  0.16271185  0.82503391  0.65060549    -0.00720
C347        C  0.35029856  0.73614889  0.79469762    -0.01840
C348        C  0.33444009  0.77181850  0.75548048     0.07840
C349        C  0.35969643  0.78552824  0.71070789    -0.01960
C350        C  0.40075958  0.76384951  0.70536582    -0.01960
C351        C  0.41661639  0.72817687  0.74458052     0.07970
C352        C  0.39136012  0.71446733  0.78935352    -0.02160
Br353      Br  0.41390124  0.66717981  0.84457539    -0.00700
Br354      Br  0.31647087  0.71774001  0.85655962    -0.00780
Br355      Br  0.43459401  0.78227122  0.64351141    -0.00740
Br356      Br  0.33715452  0.83281493  0.65548472    -0.00720
C357        C  0.13840593  0.78648772  0.96165443    -0.01840
C358        C  0.16679320  0.77194318  0.00601717     0.07840
C359        C  0.15390344  0.73534649  0.54431184    -0.01960
C360        C  0.11280392  0.71349351  0.53841000    -0.01960
C361        C  0.08441673  0.72803783  0.49404685     0.07970
C362        C  0.09730586  0.76463625  0.95575374    -0.02160
Br363      Br  0.05942301  0.78408163  0.89421324    -0.00700
Br364      Br  0.15657494  0.83522554  0.90764291    -0.00780
Br365      Br  0.09463344  0.66475785  0.59242209    -0.00740
Br366      Br  0.19178177  0.71591135  0.60585839    -0.00720
C367        C  0.35156843  0.73731594  0.54581629    -0.01840
C368        C  0.33461332  0.77179587  0.00586386     0.07840
C369        C  0.35865941  0.78435641  0.95997889    -0.01960
C370        C  0.39964013  0.76269783  0.95422619    -0.01960
C371        C  0.41659648  0.72822090  0.49418051     0.07970
C372        C  0.39255058  0.71565985  0.54006485    -0.02160
Br373      Br  0.41657791  0.66981715  0.59593081    -0.00700
Br374      Br  0.31925080  0.72041298  0.60901929    -0.00780
Br375      Br  0.43195102  0.77958639  0.89101603    -0.00740
Br376      Br  0.33463173  0.83019581  0.90410998    -0.00720
C377        C  0.36314220  0.21400077  0.78915712    -0.01840
C378        C  0.33441652  0.22780501  0.74491109     0.07840
C379        C  0.34696534  0.26389691  0.70578307    -0.01960
C380        C  0.38805890  0.28601315  0.71076571    -0.01960
C381        C  0.41678555  0.27220585  0.75500928     0.07970
C382        C  0.40423595  0.23611691  0.79413893    -0.02160
Br383      Br  0.44260807  0.21777305  0.85554274    -0.00700
Br384      Br  0.34549776  0.16589181  0.84419434    -0.00780
Br385      Br  0.40569919  0.33413366  0.65573857    -0.00740
Br386      Br  0.30859013  0.28225252  0.64438421    -0.00720
C387        C  0.14420063  0.21910834  0.79243166    -0.01840
C388        C  0.16667201  0.22808852  0.74512080     0.07840
C389        C  0.14810853  0.25914095  0.70270236    -0.01960
C390        C  0.10700253  0.28094013  0.70747620    -0.01960
C391        C  0.08453010  0.27195846  0.75478660     0.07970
C392        C  0.10309209  0.24090288  0.79720309    -0.02160
Br393      Br  0.07239904  0.22861035  0.86196023    -0.00700
Br394      Br  0.17041560  0.17770621  0.85105514    -0.00780
Br395      Br  0.08079041  0.32234615  0.64885563    -0.00740
Br396      Br  0.17879041  0.27141346  0.63793631    -0.00720
C397        C  0.40181930  0.24002942  0.54658290    -0.01840
C398        C  0.41651546  0.27242593  0.50471374     0.07840
C399        C  0.39015936  0.28238733  0.95809669    -0.01960
C400        C  0.34920803  0.25999301  0.95338252    -0.01960
C401        C  0.33450958  0.22760127  0.99525442     0.07970
C402        C  0.36086737  0.21763670  0.54186942    -0.02160
Br403      Br  0.34032761  0.17397587  0.59971073    -0.00700
Br404      Br  0.43727100  0.22703221  0.61084747    -0.00780
Br405      Br  0.31376671  0.27296931  0.88910870    -0.00740
Br406      Br  0.41070603  0.32603595  0.90024898    -0.00720
C407        C  0.11224135  0.28839513  0.96308515    -0.01840
C408        C  0.08441216  0.27217729  0.50499597     0.07840
C409        C  0.09779938  0.23361614  0.54177031    -0.01960
C410        C  0.13878259  0.21159661  0.53689390    -0.01960
C411        C  0.16661260  0.22781472  0.99498319     0.07970
C412        C  0.15322617  0.26637817  0.95821084    -0.02160
Br413      Br  0.18993791  0.28832330  0.89963498    -0.00700
Br414      Br  0.09326073  0.33938233  0.91029895    -0.00780
Br415      Br  0.15776153  0.16060990  0.58968074    -0.00740
Br416      Br  0.06109312  0.21168354  0.60035469    -0.00720
O417        O  0.78712699  0.06349069  0.99077432    -0.71780
O418        O  0.78735406  0.93515634  0.51477749    -0.71990
O419        O  0.78723039  0.99996953  0.43013384    -0.71850
O420        O  0.78722121  0.99869212  0.07545214    -0.71860
O421        O  0.71409498  0.99923559  0.07234627    -0.71820
O422        O  0.71410453  0.00048355  0.42711232    -0.71840
O423        O  0.71434031  0.93564358  0.01178370    -0.71780
O424        O  0.71411030  0.06405599  0.48772659    -0.71970
V425        V  0.78580968  0.99933399  0.50273206     1.35240
V426        V  0.71558462  0.99984296  0.49979740     1.35170
C427        C  0.75059936  0.08567509  0.98638268     0.77460
C428        C  0.75090688  0.91349793  0.51613275     0.77520
C429        C  0.75064969  0.99981057  0.40412982     0.77390
C430        C  0.75063622  0.99941935  0.09838033     0.77350
O431        O  0.71382548  0.06409436  0.23833293    -0.71780
O432        O  0.71414292  0.93579214  0.26109102    -0.71990
O433        O  0.71400976  0.99877316  0.32247053    -0.71850
O434        O  0.71399018  0.00108899  0.17695156    -0.71860
O435        O  0.78711676  0.00058768  0.18003618    -0.71820
O436        O  0.78713585  0.99830059  0.32547087    -0.71840
O437        O  0.78716045  0.93527352  0.26410576    -0.71780
O438        O  0.78684280  0.06364064  0.24129803    -0.71970
V439        V  0.71541465  0.99993036  0.24977199     1.35240
V440        V  0.78564070  0.99946322  0.25268242     1.35170
C441        C  0.75026325  0.08575773  0.23710505     0.77460
C442        C  0.75068488  0.91365341  0.26518221     0.77520
C443        C  0.75059373  0.99884588  0.34848817     0.77390
C444        C  0.75057237  0.00048595  0.15398945     0.77350
C445        C  0.79145602  0.20411600  0.49042803     0.03130
C446        C  0.79130693  0.15853943  0.48522976    -0.13020
C447        C  0.75058178  0.13529159  0.48319017     0.00630
C448        C  0.70989146  0.15894972  0.48377805    -0.11540
C449        C  0.70970727  0.20438792  0.48983668     0.03120
C450        C  0.75069824  0.22667823  0.49364564    -0.10960
H451        H  0.82308023  0.14096661  0.48465823     0.08720
H452        H  0.67815856  0.14162065  0.48180271     0.06250
H453        H  0.75092680  0.26142847  0.49956836     0.06100
C454        C  0.70949730  0.20460237  0.24004330     0.03130
C455        C  0.70944420  0.15885849  0.23553236    -0.13020
C456        C  0.75010489  0.13536274  0.23397118     0.00630
C457        C  0.79081779  0.15882317  0.23477631    -0.11540
C458        C  0.79116964  0.20448902  0.23979128     0.03120
C459        C  0.75038623  0.22719322  0.24267124    -0.10960
H460        H  0.67766921  0.14135251  0.23519798     0.08720
H461        H  0.82251660  0.14126838  0.23360843     0.06250
H462        H  0.75048407  0.26218573  0.24769890     0.06100
C463        C  0.79174330  0.79496057  0.51193377     0.03130
C464        C  0.79172872  0.84045336  0.51757024    -0.13020
C465        C  0.75106012  0.86388508  0.51927112     0.00630
C466        C  0.71036036  0.84048378  0.51797086    -0.11540
C467        C  0.71002932  0.79502854  0.51208216     0.03120
C468        C  0.75082453  0.77249149  0.50872244    -0.10960
H469        H  0.82348609  0.85793775  0.51833151     0.08720
H470        H  0.67865017  0.85800192  0.51920143     0.06250
H471        H  0.75070510  0.73776262  0.50271958     0.06100
C472        C  0.79149304  0.79503733  0.26118756     0.03130
C473        C  0.79141494  0.84056928  0.26671037    -0.13020
C474        C  0.75073243  0.86410417  0.26787424     0.00630
C475        C  0.70999672  0.84082155  0.26598506    -0.11540
C476        C  0.70981062  0.79520690  0.26089870     0.03120
C477        C  0.75057481  0.77251379  0.25810428    -0.10960
H478        H  0.82317241  0.85799673  0.26787442     0.08720
H479        H  0.67822894  0.85840846  0.26653994     0.06250
H480        H  0.75042061  0.73762962  0.25266768     0.06100
C481        C  0.54117651  0.70495864  0.98798255     0.03130
C482        C  0.50038602  0.72750592  0.99133755    -0.13020
C483        C  0.95946201  0.70505048  0.98810873     0.00630
C484        C  0.95946490  0.65956264  0.98245585    -0.11540
C485        C  0.50012687  0.63611892  0.98076096     0.03120
C486        C  0.54083453  0.65950478  0.98208511    -0.10960
H487        H  0.50051302  0.76223260  0.99734819     0.08720
H488        H  0.92770188  0.64209018  0.98167934     0.06250
H489        H  0.57254003  0.64197721  0.98085931     0.06100
C490        C  0.54124683  0.70480901  0.23913255     0.03130
C491        C  0.50048071  0.72749197  0.24194683    -0.13020
C492        C  0.95956538  0.70496123  0.23887186     0.00630
C493        C  0.95964949  0.65943020  0.23334210    -0.11540
C494        C  0.50033597  0.63590698  0.23215421     0.03120
C495        C  0.54106691  0.65919855  0.23403241    -0.10960
H496        H  0.50063120  0.76237428  0.24739039     0.08720
H497        H  0.92789545  0.64199568  0.23218526     0.06250
H498        H  0.57283760  0.64162071  0.23346070     0.06100
C499        C  0.54132241  0.29560991  0.01014599     0.03130
C500        C  0.50032631  0.27333133  0.00632889    -0.13020
C501        C  0.95957350  0.29590498  0.00953959     0.00630
C502        C  0.95973437  0.34148228  0.01473977    -0.11540
C503        C  0.50046738  0.36471600  0.01679477     0.03120
C504        C  0.54115020  0.34104529  0.01621203    -0.10960
H505        H  0.50009184  0.23858201  0.50040471     0.08720
H506        H  0.92796617  0.35906528  0.01530589     0.06250
H507        H  0.57288858  0.35836349  0.01819463     0.06100
C508        C  0.54169948  0.29543614  0.25986488     0.03130
C509        C  0.50081565  0.27283658  0.25723266    -0.13020
C510        C  0.96002790  0.29552646  0.26013323     0.00630
C511        C  0.96036866  0.34118435  0.26517731    -0.11540
C512        C  0.50107444  0.36465481  0.26598693     0.03120
C513        C  0.54174158  0.34117521  0.26439996    -0.10960
H514        H  0.50072511  0.23784809  0.25218952     0.08720
H515        H  0.92866527  0.35872656  0.26636284     0.06250
H516        H  0.57351159  0.35868945  0.26473825     0.06100
O517        O  0.53681663  0.56434312  0.98823216    -0.71780
O518        O  0.53697248  0.43593320  0.51227668    -0.71990
O519        O  0.53702694  0.50075495  0.42766234    -0.71850
O520        O  0.53701257  0.49950346  0.07289643    -0.71860
O521        O  0.96388664  0.50005552  0.06986529    -0.71820
O522        O  0.96390069  0.50133329  0.42454654    -0.71840
O523        O  0.96395613  0.43653441  0.00922018    -0.71780
O524        O  0.96379808  0.56486812  0.48522545    -0.71970
V525        V  0.53553449  0.50014547  0.00021153     1.35240
V526        V  0.96530940  0.50069063  0.99726687     1.35170
C527        C  0.50025861  0.58650791  0.98388249     0.77460
C528        C  0.50047213  0.41433110  0.01361266     0.77520
C529        C  0.50048627  0.50058791  0.40162341     0.77390
C530        C  0.50046727  0.50019878  0.09587335     0.77350
O531        O  0.96430787  0.43635780  0.25869779    -0.71780
O532        O  0.96393216  0.56472513  0.23591070    -0.71990
O533        O  0.96398248  0.50170506  0.17453416    -0.71850
O534        O  0.96400640  0.49940307  0.31997150    -0.71860
O535        O  0.53713288  0.49893346  0.32304804    -0.71820
O536        O  0.53710850  0.50125889  0.17752652    -0.71840
O537        O  0.53694965  0.56423541  0.23891319    -0.71780
O538        O  0.53732514  0.43593444  0.26165686    -0.71970
V539        V  0.96548045  0.50053544  0.24732391     1.35240
V540        V  0.53570643  0.50009741  0.25022603     1.35170
C541        C  0.50089679  0.41425660  0.26287900     0.77460
C542        C  0.50039919  0.58635933  0.23483313     0.77520
C543        C  0.50052395  0.50117068  0.15151336     0.77390
C544        C  0.50055085  0.49952041  0.34601433     0.77350
C545        C  0.65124661  0.73989675  0.29706171    -0.01840
C546        C  0.66670343  0.77197046  0.25536884     0.07840
C547        C  0.64097294  0.78201216  0.20827901    -0.01960
C548        C  0.59981048  0.76011777  0.20296652    -0.01960
C549        C  0.58435186  0.72804810  0.24466153     0.07970
C550        C  0.61008347  0.71800395  0.29174976    -0.02160
Br551      Br  0.58834695  0.67497627  0.34941993    -0.00700
Br552      Br  0.68610181  0.72656440  0.36176249    -0.00780
Br553      Br  0.56496229  0.77343446  0.13825947    -0.00740
Br554      Br  0.66271350  0.82503107  0.15060389    -0.00720
C555        C  0.85029799  0.73614823  0.29469701    -0.01840
C556        C  0.83444007  0.77181851  0.25548035     0.07840
C557        C  0.85969701  0.78552887  0.21070836    -0.01960
C558        C  0.90076022  0.76385018  0.20536647    -0.01960
C559        C  0.91661649  0.72817687  0.24458069     0.07970
C560        C  0.89135961  0.71446671  0.28935309    -0.02160
Br561      Br  0.91390008  0.66717852  0.34457459    -0.00700
Br562      Br  0.81646949  0.71773839  0.35655821    -0.00780
Br563      Br  0.93459547  0.78227285  0.14351286    -0.00740
Br564      Br  0.83715574  0.83281623  0.15548555    -0.00720
C565        C  0.63840037  0.78648965  0.46165555    -0.01840
C566        C  0.66678775  0.77194497  0.50601816     0.07840
C567        C  0.65390899  0.73534458  0.04431072    -0.01960
C568        C  0.61280948  0.71349157  0.03840886    -0.01960
C569        C  0.58442218  0.72803604  0.99404583     0.07970
C570        C  0.59730031  0.76463816  0.45575483    -0.02160
Br571      Br  0.55941743  0.78408354  0.39421436    -0.00700
Br572      Br  0.65656925  0.83522760  0.40764410    -0.00780
Br573      Br  0.59463913  0.66475577  0.09242086    -0.00740
Br574      Br  0.69178736  0.71590942  0.10585724    -0.00720
C575        C  0.85157394  0.73731676  0.04581654    -0.01840
C576        C  0.83460786  0.77179510  0.50586364     0.07840
C577        C  0.85865387  0.78435552  0.45997861    -0.01960
C578        C  0.89963463  0.76269702  0.45422596    -0.01960
C579        C  0.91660194  0.72822167  0.99418073     0.07970
C580        C  0.89255614  0.71566076  0.04006515    -0.02160
Br581      Br  0.91658356  0.66981817  0.09593117    -0.00700
Br582      Br  0.81925616  0.72041356  0.10901939    -0.00780
Br583      Br  0.93194568  0.77958584  0.39101595    -0.00740
Br584      Br  0.83462610  0.83019482  0.40410964    -0.00720
C585        C  0.86314226  0.21400063  0.28915701    -0.01840
C586        C  0.83441649  0.22780503  0.24491109     0.07840
C587        C  0.84696524  0.26389708  0.20578321    -0.01960
C588        C  0.88805881  0.28601330  0.21076586    -0.01960
C589        C  0.91678555  0.27220584  0.25500932     0.07970
C590        C  0.90423603  0.23611675  0.29413883    -0.02160
Br591      Br  0.94260827  0.21777264  0.35554249    -0.00700
Br592      Br  0.84549792  0.16589151  0.34419410    -0.00780
Br593      Br  0.90569901  0.33413396  0.15573885    -0.00740
Br594      Br  0.80858990  0.28225294  0.14438450    -0.00720
C595        C  0.64420091  0.21910873  0.29243184    -0.01840
C596        C  0.66667197  0.22808849  0.24512075     0.07840
C597        C  0.64810820  0.25914052  0.20270213    -0.01960
C598        C  0.60700222  0.28093972  0.20747604    -0.01960
C599        C  0.58453011  0.27195847  0.25478667     0.07970
C600        C  0.60309240  0.24090330  0.29720333    -0.02160
Br601      Br  0.57239975  0.22861134  0.36196077    -0.00700
Br602      Br  0.67041625  0.17770708  0.35105547    -0.00780
Br603      Br  0.58078973  0.32234526  0.14885531    -0.00740
Br604      Br  0.67878967  0.27141245  0.13793579    -0.00720
C605        C  0.90181774  0.24002948  0.04658338    -0.01840
C606        C  0.91651392  0.27242598  0.00471421     0.07840
C607        C  0.89016092  0.28238726  0.45809624    -0.01960
C608        C  0.84920958  0.25999296  0.45338207    -0.01960
C609        C  0.83451113  0.22760122  0.49525397     0.07970
C610        C  0.86086582  0.21763678  0.04186990    -0.02160
Br611      Br  0.84032609  0.17397586  0.09971117    -0.00700
Br612      Br  0.93726953  0.22703214  0.11084788    -0.00780
Br613      Br  0.81376817  0.27296940  0.38910832    -0.00740
Br614      Br  0.91070754  0.32603597  0.40024857    -0.00720
C615        C  0.61224295  0.28839637  0.46308516    -0.01840
C616        C  0.58441060  0.27217610  0.00499600     0.07840
C617        C  0.59779779  0.23361492  0.04177031    -0.01960
C618        C  0.63878099  0.21159538  0.03689388    -0.01960
C619        C  0.66661416  0.22781590  0.49498316     0.07970
C620        C  0.65322776  0.26637939  0.45821084    -0.02160
Br621      Br  0.68993949  0.28832446  0.39963495    -0.00700
Br622      Br  0.59326234  0.33938359  0.41029899    -0.00780
Br623      Br  0.65775992  0.16060865  0.08968070    -0.00740
Br624      Br  0.56109155  0.21168238  0.10035472    -0.00720
O625        O  0.78712682  0.06349069  0.49077439    -0.71780
O626        O  0.78735642  0.93515641  0.01477758    -0.71990
O627        O  0.78723154  0.99996954  0.93013380    -0.71850
O628        O  0.78722003  0.99869201  0.57545205    -0.71860
O629        O  0.71409380  0.99923687  0.57234603    -0.71820
O630        O  0.71410568  0.00048257  0.92711264    -0.71840
O631        O  0.71433795  0.93564479  0.51178356    -0.71780
O632        O  0.71411047  0.06405488  0.98772700    -0.71970
V633        V  0.78581090  0.99933401  0.00273209     1.35240
V634        V  0.71558585  0.99984182  0.99979768     1.35170
C635        C  0.75059950  0.08567564  0.48638250     0.77460
C636        C  0.75090965  0.91349736  0.01613281     0.77520
C637        C  0.75065078  0.99981015  0.90412995     0.77390
C638        C  0.75063510  0.99941986  0.59838019     0.77350
O639        O  0.71382546  0.06409432  0.73833359    -0.71780
O640        O  0.71414296  0.93579211  0.76109114    -0.71990
O641        O  0.71401039  0.99877284  0.82247097    -0.71850
O642        O  0.71398956  0.00108925  0.67695184    -0.71860
O643        O  0.78711613  0.00058776  0.68003581    -0.71820
O644        O  0.78713648  0.99830057  0.82547056    -0.71840
O645        O  0.78716049  0.93527355  0.76410539    -0.71780
O646        O  0.78684278  0.06364066  0.74129771    -0.71970
V647        V  0.71541466  0.99993033  0.74977236     1.35240
V648        V  0.78564070  0.99946325  0.75268208     1.35170
C649        C  0.75026324  0.08575771  0.73710523     0.77460
C650        C  0.75068493  0.91365341  0.76518212     0.77520
C651        C  0.75059454  0.99884563  0.84848825     0.77390
C652        C  0.75057156  0.00048623  0.65398937     0.77350
C653        C  0.79145465  0.20411577  0.99042836     0.03130
C654        C  0.79130597  0.15853924  0.98522999    -0.13020
C655        C  0.75058104  0.13529103  0.98319039     0.00630
C656        C  0.70989049  0.15894877  0.98377828    -0.11540
C657        C  0.70970590  0.20438699  0.98983691     0.03120
C658        C  0.75069668  0.22667764  0.99364596    -0.10960
H659        H  0.82307944  0.14096672  0.98465845     0.08720
H660        H  0.67815776  0.14161942  0.98180290     0.06250
H661        H  0.75092493  0.26142788  0.99956870     0.06100
C662        C  0.70949734  0.20460238  0.74004340     0.03130
C663        C  0.70944422  0.15885849  0.73553251    -0.13020
C664        C  0.75010490  0.13536272  0.73397135     0.00630
C665        C  0.79081781  0.15882314  0.73477644    -0.11540
C666        C  0.79116968  0.20448900  0.73979135     0.03120
C667        C  0.75038628  0.22719322  0.74267130    -0.10960
H668        H  0.67766922  0.14135252  0.73519813     0.08720
H669        H  0.82251661  0.14126834  0.73360857     0.06250
H670        H  0.75048413  0.26218575  0.74769891     0.06100
C671        C  0.79174833  0.79496074  0.01193366     0.03130
C672        C  0.79173290  0.84045351  0.01757023    -0.13020
C673        C  0.75106384  0.86388452  0.01927101     0.00630
C674        C  0.71036452  0.84048253  0.01797045    -0.11540
C675        C  0.71003435  0.79502734  0.01208158     0.03120
C676        C  0.75082998  0.77249099  0.00872201    -0.10960
H677        H  0.82348995  0.85793842  0.01833174     0.08720
H678        H  0.67865400  0.85800012  0.01920089     0.06250
H679        H  0.75071121  0.73776215  0.00271905     0.06100
C680        C  0.79149309  0.79503728  0.76118779     0.03130
C681        C  0.79141500  0.84056927  0.76671042    -0.13020
C682        C  0.75073250  0.86410415  0.76787431     0.00630
C683        C  0.70999679  0.84082149  0.76598532    -0.11540
C684        C  0.70981066  0.79520681  0.76089899     0.03120
C685        C  0.75057487  0.77251370  0.75810464    -0.10960
H686        H  0.82317247  0.85799676  0.76787428     0.08720
H687        H  0.67822902  0.85840841  0.76654023     0.06250
H688        H  0.75042070  0.73762952  0.75266810     0.06100
C689        C  0.54117148  0.70495984  0.48798314     0.03130
C690        C  0.50038056  0.72750642  0.49133797    -0.13020
C691        C  0.95945698  0.70505030  0.48810884     0.00630
C692        C  0.95946072  0.65956249  0.48245585    -0.11540
C693        C  0.50012316  0.63611948  0.48076107     0.03120
C694        C  0.54083037  0.65950602  0.48208552    -0.10960
H695        H  0.50050692  0.76223307  0.49734872     0.08720
H696        H  0.92769802  0.64208950  0.48167910     0.06250
H697        H  0.57253620  0.64197901  0.48085987     0.06100
C698        C  0.54124672  0.70480911  0.73913222     0.03130
C699        C  0.50048058  0.72749206  0.74194645    -0.13020
C700        C  0.95956527  0.70496127  0.73887159     0.00630
C701        C  0.95964937  0.65943020  0.73334203    -0.11540
C702        C  0.50033585  0.63590700  0.73215414     0.03120
C703        C  0.54106679  0.65919863  0.73403214    -0.10960
H704        H  0.50063103  0.76237439  0.74738993     0.08720
H705        H  0.92789534  0.64199564  0.73218538     0.06250
H706        H  0.57283747  0.64162078  0.73346040     0.06100
C707        C  0.54132378  0.29561084  0.51014577     0.03130
C708        C  0.50032788  0.27333192  0.50632859    -0.13020
C709        C  0.95957487  0.29590521  0.50953924     0.00630
C710        C  0.95973534  0.34148247  0.51473953    -0.11540
C711        C  0.50046812  0.36471656  0.51679456     0.03120
C712        C  0.54115117  0.34104624  0.51621180    -0.10960
H713        H  0.50008997  0.23858142  0.00040504     0.08720
H714        H  0.92796697  0.35906516  0.51530568     0.06250
H715        H  0.57288938  0.35836473  0.51819444     0.06100
C716        C  0.54169947  0.29543613  0.75986477     0.03130
C717        C  0.50081563  0.27283658  0.75723257    -0.13020
C718        C  0.96002789  0.29552647  0.76013318     0.00630
C719        C  0.96036866  0.34118437  0.76517720    -0.11540
C720        C  0.50107444  0.36465483  0.76598675     0.03120
C721        C  0.54174158  0.34117522  0.76439980    -0.10960
H722        H  0.50072508  0.23784808  0.75218947     0.08720
H723        H  0.92866527  0.35872659  0.76636272     0.06250
H724        H  0.57351159  0.35868945  0.76473810     0.06100
O725        O  0.53681426  0.56434432  0.48823203    -0.71780
O726        O  0.53697265  0.43593209  0.01227709    -0.71990
O727        O  0.53702812  0.50075368  0.92766257    -0.71850
O728        O  0.53701141  0.49950445  0.57289611    -0.71860
O729        O  0.96388549  0.50005550  0.56986533    -0.71820
O730        O  0.96390187  0.50133340  0.92454663    -0.71840
O731        O  0.96395595  0.43653440  0.50922023    -0.71780
O732        O  0.96380045  0.56486819  0.98522555    -0.71970
V733        V  0.53553326  0.50014661  0.50021126     1.35240
V734        V  0.96530818  0.50069060  0.49726683     1.35170
C735        C  0.50025585  0.58650849  0.48388243     0.77460
C736        C  0.50047227  0.41433166  0.51361248     0.77520
C737        C  0.50048738  0.50058740  0.90162355     0.77390
C738        C  0.50046617  0.50019920  0.59587322     0.77350
O739        O  0.96430789  0.43635777  0.75869812    -0.71780
O740        O  0.96393209  0.56472509  0.73591106    -0.71990
O741        O  0.96398184  0.50170506  0.67453447    -0.71850
O742        O  0.96400702  0.49940298  0.81997188    -0.71860
O743        O  0.53713349  0.49893320  0.82304775    -0.71820
O744        O  0.53710786  0.50125921  0.67752609    -0.71840
O745        O  0.53694957  0.56423545  0.73891307    -0.71780
O746        O  0.53732516  0.43593449  0.76165620    -0.71970
V747        V  0.96548044  0.50053541  0.74732425     1.35240
V748        V  0.53570641  0.50009744  0.75022566     1.35170
C749        C  0.50089681  0.41425661  0.76287881     0.77460
C750        C  0.50039910  0.58635933  0.73483321     0.77520
C751        C  0.50052313  0.50117092  0.65151327     0.77390
C752        C  0.50055165  0.49952012  0.84601441     0.77350
C753        C  0.65124732  0.73989539  0.79706105    -0.01840
C754        C  0.66670343  0.77197042  0.75536898     0.07840
C755        C  0.64097219  0.78201345  0.70827977    -0.01960
C756        C  0.59980970  0.76011915  0.70296714    -0.01960
C757        C  0.58435178  0.72804817  0.74466136     0.07970
C758        C  0.61008414  0.71800268  0.79174898    -0.02160
Br759      Br  0.58834852  0.67497345  0.84941832    -0.00700
Br760      Br  0.68610343  0.72656118  0.86176108    -0.00780
Br761      Br  0.56496059  0.77343770  0.63826086    -0.00740
Br762      Br  0.66271185  0.82503391  0.65060548    -0.00720
C763        C  0.85029856  0.73614888  0.79469761    -0.01840
C764        C  0.83444009  0.77181850  0.75548048     0.07840
C765        C  0.85969644  0.78552824  0.71070789    -0.01960
C766        C  0.90075958  0.76384951  0.70536582    -0.01960
C767        C  0.91661639  0.72817686  0.74458052     0.07970
C768        C  0.89136011  0.71446733  0.78935352    -0.02160
Br769      Br  0.91390123  0.66717981  0.84457539    -0.00700
Br770      Br  0.81647087  0.71774001  0.85655962    -0.00780
Br771      Br  0.93459402  0.78227122  0.64351141    -0.00740
Br772      Br  0.83715452  0.83281493  0.65548472    -0.00720
C773        C  0.63840593  0.78648772  0.96165443    -0.01840
C774        C  0.66679320  0.77194317  0.00601716     0.07840
C775        C  0.65390344  0.73534649  0.54431183    -0.01960
C776        C  0.61280391  0.71349352  0.53840999    -0.01960
C777        C  0.58441673  0.72803784  0.49404684     0.07970
C778        C  0.59730586  0.76463625  0.95575373    -0.02160
Br779      Br  0.55942300  0.78408163  0.89421323    -0.00700
Br780      Br  0.65657494  0.83522554  0.90764290    -0.00780
Br781      Br  0.59463344  0.66475785  0.59242208    -0.00740
Br782      Br  0.69178177  0.71591135  0.60585838    -0.00720
C783        C  0.85156843  0.73731594  0.54581630    -0.01840
C784        C  0.83461332  0.77179586  0.00586386     0.07840
C785        C  0.85865941  0.78435641  0.95997889    -0.01960
C786        C  0.89964013  0.76269783  0.95422619    -0.01960
C787        C  0.91659648  0.72822090  0.49418051     0.07970
C788        C  0.89255058  0.71565985  0.54006486    -0.02160
Br789      Br  0.91657790  0.66981715  0.59593081    -0.00700
Br790      Br  0.81925080  0.72041299  0.60901930    -0.00780
Br791      Br  0.93195103  0.77958638  0.89101603    -0.00740
Br792      Br  0.83463173  0.83019581  0.90410997    -0.00720
C793        C  0.86314220  0.21400076  0.78915714    -0.01840
C794        C  0.83441652  0.22780501  0.74491111     0.07840
C795        C  0.84696534  0.26389691  0.70578310    -0.01960
C796        C  0.88805890  0.28601315  0.71076573    -0.01960
C797        C  0.91678555  0.27220585  0.75500931     0.07970
C798        C  0.90423596  0.23611691  0.79413895    -0.02160
Br799      Br  0.94260807  0.21777304  0.85554276    -0.00700
Br800      Br  0.84549777  0.16589180  0.84419436    -0.00780
Br801      Br  0.90569919  0.33413366  0.65573860    -0.00740
Br802      Br  0.80859013  0.28225252  0.64438424    -0.00720
C803        C  0.64420062  0.21910834  0.79243167    -0.01840
C804        C  0.66667200  0.22808852  0.74512081     0.07840
C805        C  0.64810854  0.25914095  0.70270237    -0.01960
C806        C  0.60700253  0.28094013  0.70747620    -0.01960
C807        C  0.58453010  0.27195846  0.75478660     0.07970
C808        C  0.60309209  0.24090288  0.79720309    -0.02160
Br809      Br  0.57239902  0.22861035  0.86196022    -0.00700
Br810      Br  0.67041559  0.17770621  0.85105514    -0.00780
Br811      Br  0.58079042  0.32234616  0.64885563    -0.00740
Br812      Br  0.67879042  0.27141346  0.63793632    -0.00720
C813        C  0.90181930  0.24002943  0.54658290    -0.01840
C814        C  0.91651547  0.27242593  0.50471373     0.07840
C815        C  0.89015937  0.28238733  0.95809671    -0.01960
C816        C  0.84920803  0.25999301  0.95338254    -0.01960
C817        C  0.83450958  0.22760127  0.99525444     0.07970
C818        C  0.86086737  0.21763671  0.54186942    -0.02160
Br819      Br  0.84032760  0.17397588  0.59971074    -0.00700
Br820      Br  0.93727100  0.22703223  0.61084747    -0.00780
Br821      Br  0.81376672  0.27296931  0.88910872    -0.00740
Br822      Br  0.91070604  0.32603594  0.90024900    -0.00720
C823        C  0.61224136  0.28839513  0.96308514    -0.01840
C824        C  0.58441216  0.27217729  0.50499598     0.07840
C825        C  0.59779938  0.23361614  0.54177033    -0.01960
C826        C  0.63878258  0.21159662  0.53689391    -0.01960
C827        C  0.66661260  0.22781471  0.99498318     0.07970
C828        C  0.65322617  0.26637817  0.95821083    -0.02160
Br829      Br  0.68993793  0.28832330  0.89963498    -0.00700
Br830      Br  0.59326074  0.33938234  0.91029894    -0.00780
Br831      Br  0.65776153  0.16060990  0.58968075    -0.00740
Br832      Br  0.56109312  0.21168354  0.60035470    -0.00720
loop_ 
_geom_bond_atom_site_label_1 
_geom_bond_atom_site_label_2 
_geom_bond_distance 
_geom_bond_site_symmetry_2 
_ccdc_geom_bond_type 
O1           C11   1.265       .  A
O1          V217   1.899   1_546  S
O2           C12   1.265       .  A
O2            V9   1.899       .  S
O3           C13   1.263       .  A
O3            V9   1.896       .  S
O4           C14   1.263       .  A
O4          V217   1.896       .  S
O5           C14   1.263       .  A
O5          V218   1.895   1_554  S
O6           C13   1.263   1_545  A
O6           V10   1.895   1_545  S
O7          C220   1.265       .  A
O7          V218   1.900   1_554  S
O8          C219   1.265       .  A
O8           V10   1.900   1_545  S
V9          O209   1.899   1_565  S
V9          O212   1.896       .  S
V9           V10   2.088       .  T
V10         O213   1.895       .  S
V10         O215   1.900       .  S
C11         O216   1.265       .  A
C11         C239   1.479       .  S
C12         O215   1.265       .  A
C12          C49   1.479       .  S
C13          C27   1.460       .  S
C14          C28   1.460   1_565  S
O15          C25   1.265       .  A
O15          V23   1.899   1_545  S
O16          C26   1.265       .  A
O16          V23   1.898       .  S
O17          C27   1.263       .  A
O17          V23   1.896       .  S
O18          C28   1.263       .  A
O18          V23   1.896   1_545  S
O19          C28   1.263       .  A
O19          V24   1.895   1_545  S
O20          C27   1.263       .  A
O20          V24   1.895       .  S
O21          C26   1.265       .  A
O21          V24   1.899       .  S
O22          C25   1.265       .  A
O22          V24   1.899   1_545  S
V23          V24   2.088       .  T
C25          C40   1.479       .  S
C26          C58   1.479       .  S
C29         C193   1.477       .  S
C29          C30   1.402       .  A
C29          C34   1.401       .  A
C30          C31   1.405       .  A
C30          H35   1.084       .  S
C31         C219   1.479       .  S
C31          C32   1.405       .  A
C32          C33   1.404       .  A
C32          H36   1.084       .  S
C33         C203   1.484       .  S
C33          C34   1.402       .  A
C34          H37   1.084       .  S
C38         C180   1.477       .  S
C38          C39   1.402       .  A
C38          C43   1.401       .  A
C39          C40   1.405       .  A
C39          H44   1.084       .  S
C40          C41   1.405       .  A
C41          C42   1.403       .  A
C41          H45   1.084       .  S
C42         C170   1.480       .  S
C42          C43   1.402       .  A
C43          H46   1.084       .  S
C47         C160   1.479       .  S
C47          C48   1.402       .  A
C47          C52   1.401       .  A
C48          C49   1.405       .  A
C48          H53   1.084       .  S
C49          C50   1.405       .  A
C50          C51   1.403       .  A
C50          H54   1.084       .  S
C51         C150   1.481       .  S
C51          C52   1.402       .  A
C52          H55   1.084       .  S
C56         C140   1.480       .  S
C56          C57   1.403       .  A
C56          C61   1.402       .  A
C57          C58   1.405       .  A
C57          H62   1.084       .  S
C58          C59   1.405       .  A
C59          C60   1.402       .  A
C59          H63   1.084       .  S
C60         C130   1.477       .  S
C60          C61   1.401       .  A
C61          H64   1.084       .  S
C65         C153   1.481       .  S
C65          C66   1.402       .  A
C65          C70   1.403       .  A
C66         C483   1.401   1_455  A
C66          H71   1.084       .  S
C67         C163   1.479       .  S
C67          C68   1.402       .  A
C67         C482   1.401       .  A
C68         C485   1.405       .  A
C68          H72   1.084       .  S
C69         C111   1.479       .  S
C69          C70   1.405       .  A
C69         C484   1.405   1_455  A
C70          H73   1.084       .  S
C74         C133   1.477       .  S
C74          C75   1.401       .  A
C74          C79   1.402       .  A
C75         C492   1.402   1_455  A
C75          H80   1.084       .  S
C76         C143   1.480       .  S
C76          C77   1.403       .  A
C76         C491   1.402       .  A
C77         C494   1.405       .  A
C77          H81   1.084       .  S
C78         C126   1.479       .  S
C78          C79   1.405       .  A
C78         C493   1.405   1_455  A
C79          H82   1.084       .  S
C83         C200   1.484       .  S
C83          C84   1.402       .  A
C83          C88   1.404       .  A
C84         C501   1.401   1_455  A
C84         H297   1.084       .  S
C85         C190   1.477       .  S
C85          C86   1.402       .  A
C85         C500   1.401       .  A
C86         C503   1.405       .  A
C86          H90   1.084       .  S
C87         C112   1.479       .  S
C87          C88   1.405       .  A
C87         C502   1.405   1_455  A
C88          H91   1.084       .  S
H89         C292   1.084       .  S
C92         C183   1.477       .  S
C92          C93   1.401       .  A
C92          C97   1.402       .  A
C93         C510   1.402   1_455  A
C93          H98   1.084       .  S
C94         C173   1.480       .  S
C94          C95   1.403       .  A
C94         C509   1.402       .  A
C95         C512   1.405       .  A
C95          H99   1.084       .  S
C96         C125   1.479       .  S
C96          C97   1.405       .  A
C96         C511   1.405   1_455  A
C97         H100   1.084       .  S
O101        C111   1.265       .  A
O101        V109   1.900   1_556  S
O102        C320   1.265       .  A
O102        V317   1.900       .  S
O103        C113   1.263       .  A
O103        V317   1.895       .  S
O104        C114   1.263       .  A
O104        V109   1.895       .  S
O105        C530   1.263       .  A
O105        V110   1.896   1_554  S
O106        C529   1.263       .  A
O106        V318   1.896       .  S
O107        C528   1.265       .  A
O107        V110   1.899   1_554  S
O108        C735   1.265       .  A
O108        V318   1.899       .  S
V109        O310   1.900       .  S
V109        O311   1.895   1_554  S
V109        V526   2.088   1_454  T
V110        O314   1.896       .  S
V110        O316   1.899       .  S
V110        V525   2.088   1_556  T
C111        O732   1.265   1_455  A
C112        O310   1.265       .  A
C112        O523   1.265   1_455  A
C113        O522   1.263   1_455  A
C113        C128   1.460       .  S
C114        O521   1.263   1_455  A
C114        C127   1.460       .  S
O115        C541   1.265       .  A
O115        V123   1.899       .  S
O116        C542   1.265       .  A
O116        V123   1.899       .  S
O117        C543   1.263       .  A
O117        V123   1.895       .  S
O118        C544   1.263       .  A
O118        V123   1.895       .  S
O119        C128   1.263       .  A
O119        V124   1.896       .  S
O120        C127   1.263       .  A
O120        V124   1.896       .  S
O121        C126   1.265       .  A
O121        V124   1.898       .  S
O122        C125   1.265       .  A
O122        V124   1.899       .  S
V123        V540   2.088       .  T
V124        V539   2.088   1_455  T
C125        O531   1.265   1_455  A
C126        O532   1.265   1_455  A
C127        O533   1.263   1_455  A
C128        O534   1.263   1_455  A
C129        C130   1.409       .  A
C129        C134   1.406       .  A
C129       Br136   1.930       .  S
C130        C131   1.410       .  A
C131        C132   1.406       .  A
C131       Br138   1.931       .  S
C132        C133   1.409       .  A
C132       Br137   1.930       .  S
C133        C134   1.410       .  A
C134       Br135   1.931       .  S
C139        C140   1.410       .  A
C139        C144   1.407       .  A
C139       Br146   1.931       .  S
C140        C141   1.412       .  A
C141        C142   1.407       .  A
C141       Br148   1.933       .  S
C142        C143   1.410       .  A
C142       Br147   1.931       .  S
C143        C144   1.412       .  A
C144       Br145   1.933       .  S
C149        C150   1.412       .  A
C149        C154   1.407       .  A
C149       Br156   1.934       .  S
C150        C359   1.411       .  A
C151        C152   1.407       .  A
C151        C358   1.411       .  A
C151       Br158   1.930       .  S
C152        C153   1.412   1_554  A
C152       Br157   1.934       .  S
C153        C362   1.411       .  A
C154        C361   1.411       .  A
C154       Br155   1.930       .  S
C159        C164   1.407       .  A
C159        C368   1.410       .  A
C159       Br166   1.929       .  S
C160        C161   1.411       .  A
C160        C367   1.410       .  A
C161        C162   1.407       .  A
C161       Br168   1.932       .  S
C162        C371   1.410       .  A
C162       Br167   1.929       .  S
C163        C164   1.411   1_556  A
C163        C370   1.410       .  A
C164       Br165   1.932       .  S
C169        C170   1.412       .  A
C169        C174   1.407       .  A
C169       Br176   1.934       .  S
C170        C171   1.411       .  A
C171        C172   1.407       .  A
C171       Br178   1.931       .  S
C172        C173   1.412       .  A
C172       Br177   1.934       .  S
C173        C174   1.411       .  A
C174       Br175   1.931       .  S
C179        C180   1.410       .  A
C179        C184   1.406       .  A
C179       Br186   1.930       .  S
C180        C181   1.409       .  A
C181        C182   1.406       .  A
C181       Br188   1.929       .  S
C182        C183   1.410       .  A
C182       Br187   1.930       .  S
C183        C184   1.409       .  A
C184       Br185   1.929       .  S
C189        C190   1.410       .  A
C189        C194   1.406       .  A
C189       Br196   1.929       .  S
C190        C399   1.410   1_554  A
C191        C192   1.406       .  A
C191        C398   1.410       .  A
C191       Br198   1.932       .  S
C192        C193   1.410       .  A
C192       Br197   1.929       .  S
C193        C402   1.410       .  A
C194        C401   1.410   1_554  A
C194       Br195   1.932       .  S
C199        C204   1.407       .  A
C199        C408   1.413       .  A
C199       Br206   1.936       .  S
C200        C201   1.412       .  A
C200        C407   1.413   1_554  A
C201        C202   1.407       .  A
C201       Br208   1.931       .  S
C202        C411   1.413   1_554  A
C202       Br207   1.936       .  S
C203        C204   1.412       .  A
C203        C410   1.413       .  A
C204       Br205   1.931       .  S
O209        C219   1.265       .  A
O210        C220   1.265       .  A
O210        V217   1.899       .  S
O211        C221   1.263       .  A
O211        V217   1.896   1_556  S
O212        C222   1.263       .  A
O213        C222   1.263       .  A
O214        C221   1.263   1_545  A
O214        V218   1.895   1_545  S
O216        V218   1.900   1_545  S
V217        V218   2.088   1_554  T
C220        C257   1.479       .  S
C221        C235   1.460       .  S
C222        C236   1.460   1_565  S
O223        C233   1.265       .  A
O223        V231   1.899   1_545  S
O224        C234   1.265       .  A
O224        V231   1.898       .  S
O225        C235   1.263       .  A
O225        V231   1.896       .  S
O226        C236   1.263       .  A
O226        V231   1.896   1_545  S
O227        C236   1.263       .  A
O227        V232   1.895   1_545  S
O228        C235   1.263       .  A
O228        V232   1.895       .  S
O229        C234   1.265       .  A
O229        V232   1.899       .  S
O230        C233   1.265       .  A
O230        V232   1.899   1_545  S
V231        V232   2.088       .  T
C233        C248   1.479       .  S
C234        C266   1.479       .  S
C237        C401   1.477       .  S
C237        C238   1.402       .  A
C237        C242   1.401       .  A
C238        C239   1.405       .  A
C238        H243   1.084       .  S
C239        C240   1.405       .  A
C240        C241   1.404       .  A
C240        H244   1.084       .  S
C241        C411   1.484       .  S
C241        C242   1.402       .  A
C242        H245   1.084       .  S
C246        C388   1.477       .  S
C246        C247   1.402       .  A
C246        C251   1.401       .  A
C247        C248   1.405       .  A
C247        H252   1.084       .  S
C248        C249   1.405       .  A
C249        C250   1.403       .  A
C249        H253   1.084       .  S
C250        C378   1.480       .  S
C250        C251   1.402       .  A
C251        H254   1.084       .  S
C255        C368   1.479       .  S
C255        C256   1.402       .  A
C255        C260   1.401       .  A
C256        C257   1.405       .  A
C256        H261   1.084       .  S
C257        C258   1.405       .  A
C258        C259   1.403       .  A
C258        H262   1.084       .  S
C259        C358   1.481       .  S
C259        C260   1.402       .  A
C260        H263   1.084       .  S
C264        C348   1.480       .  S
C264        C265   1.403       .  A
C264        C269   1.402       .  A
C265        C266   1.405       .  A
C265        H270   1.084       .  S
C266        C267   1.405       .  A
C267        C268   1.402       .  A
C267        H271   1.084       .  S
C268        C338   1.477       .  S
C268        C269   1.401       .  A
C269        H272   1.084       .  S
C273        C361   1.481       .  S
C273        C274   1.402       .  A
C273        C278   1.403       .  A
C274        C691   1.401   1_455  A
C274        H279   1.084       .  S
C275        C371   1.479       .  S
C275        C690   1.401       .  A
C275        C276   1.402       .  A
C276        C693   1.405       .  A
C276        H280   1.084       .  S
C277        C319   1.479       .  S
C277        C692   1.405   1_455  A
C277        C278   1.405       .  A
C278        H281   1.084       .  S
C282        C341   1.477       .  S
C282        C283   1.401       .  A
C282        C287   1.402       .  A
C283        C700   1.402   1_455  A
C283        H288   1.084       .  S
C284        C351   1.480       .  S
C284        C699   1.402       .  A
C284        C285   1.403       .  A
C285        C702   1.405       .  A
C285        H289   1.084       .  S
C286        C334   1.479       .  S
C286        C701   1.405   1_455  A
C286        C287   1.405       .  A
C287        H290   1.084       .  S
C291        C408   1.484       .  S
C291        C292   1.402       .  A
C291        C296   1.404       .  A
C292        C709   1.401   1_455  A
C293        C398   1.477       .  S
C293        C708   1.401       .  A
C293        C294   1.402       .  A
C294        C711   1.405       .  A
C294        H298   1.084       .  S
C295        C320   1.479       .  S
C295        C710   1.405   1_455  A
C295        C296   1.405       .  A
C296        H299   1.084       .  S
C300        C391   1.477       .  S
C300        C301   1.401       .  A
C300        C305   1.402       .  A
C301        C718   1.402   1_455  A
C301        H306   1.084       .  S
C302        C381   1.480       .  S
C302        C717   1.402       .  A
C302        C303   1.403       .  A
C303        C720   1.405       .  A
C303        H307   1.084       .  S
C304        C333   1.479       .  S
C304        C719   1.405   1_455  A
C304        C305   1.405       .  A
C305        H308   1.084       .  S
O309        C319   1.265       .  A
O309        V317   1.900       .  S
O311        C321   1.263       .  A
O312        C322   1.263       .  A
O312        V317   1.895       .  S
O313        C738   1.263       .  A
O313        V318   1.896       .  S
O314        C737   1.263       .  A
O315        C736   1.265       .  A
O315        V318   1.899       .  S
O316        C527   1.265       .  A
V317        V734   2.088   1_455  T
V318        V733   2.088       .  T
C319        O524   1.265   1_455  A
C320        O731   1.265   1_455  A
C321        O730   1.263   1_455  A
C321        C336   1.460       .  S
C322        O729   1.263   1_455  A
C322        C335   1.460       .  S
O323        C749   1.265       .  A
O323        V331   1.899       .  S
O324        C750   1.265       .  A
O324        V331   1.899       .  S
O325        C751   1.263       .  A
O325        V331   1.895       .  S
O326        C752   1.263       .  A
O326        V331   1.895       .  S
O327        C336   1.263       .  A
O327        V332   1.896       .  S
O328        C335   1.263       .  A
O328        V332   1.896       .  S
O329        C334   1.265       .  A
O329        V332   1.898       .  S
O330        C333   1.265       .  A
O330        V332   1.899       .  S
V331        V748   2.088       .  T
V332        V747   2.088   1_455  T
C333        O739   1.265   1_455  A
C334        O740   1.265   1_455  A
C335        O741   1.263   1_455  A
C336        O742   1.263   1_455  A
C337        C338   1.409       .  A
C337        C342   1.406       .  A
C337       Br344   1.930       .  S
C338        C339   1.410       .  A
C339        C340   1.406       .  A
C339       Br346   1.931       .  S
C340        C341   1.409       .  A
C340       Br345   1.930       .  S
C341        C342   1.410       .  A
C342       Br343   1.931       .  S
C347        C348   1.410       .  A
C347        C352   1.407       .  A
C347       Br354   1.931       .  S
C348        C349   1.412       .  A
C349        C350   1.407       .  A
C349       Br356   1.933       .  S
C350        C351   1.410       .  A
C350       Br355   1.931       .  S
C351        C352   1.412       .  A
C352       Br353   1.933       .  S
C357        C358   1.412   1_556  A
C357        C362   1.407       .  A
C357       Br364   1.934       .  S
C359        C360   1.407       .  A
C359       Br366   1.930       .  S
C360        C361   1.412       .  A
C360       Br365   1.934       .  S
C362       Br363   1.930       .  S
C367        C372   1.407       .  A
C367       Br374   1.929       .  S
C368        C369   1.411   1_554  A
C369        C370   1.407       .  A
C369       Br376   1.932       .  S
C370       Br375   1.929       .  S
C371        C372   1.411       .  A
C372       Br373   1.932       .  S
C377        C378   1.412       .  A
C377        C382   1.407       .  A
C377       Br384   1.934       .  S
C378        C379   1.411       .  A
C379        C380   1.407       .  A
C379       Br386   1.931       .  S
C380        C381   1.412       .  A
C380       Br385   1.934       .  S
C381        C382   1.411       .  A
C382       Br383   1.931       .  S
C387        C388   1.410       .  A
C387        C392   1.406       .  A
C387       Br394   1.930       .  S
C388        C389   1.409       .  A
C389        C390   1.406       .  A
C389       Br396   1.929       .  S
C390        C391   1.410       .  A
C390       Br395   1.930       .  S
C391        C392   1.409       .  A
C392       Br393   1.929       .  S
C397        C398   1.410       .  A
C397        C402   1.406       .  A
C397       Br404   1.929       .  S
C399        C400   1.406       .  A
C399       Br406   1.932       .  S
C400        C401   1.410       .  A
C400       Br405   1.929       .  S
C402       Br403   1.932       .  S
C407        C412   1.407       .  A
C407       Br414   1.936       .  S
C408        C409   1.412       .  A
C409        C410   1.407       .  A
C409       Br416   1.931       .  S
C410       Br415   1.936       .  S
C411        C412   1.412       .  A
C412       Br413   1.931       .  S
O417        C427   1.265       .  A
O417        V633   1.899   1_546  S
O418        C428   1.265       .  A
O418        V425   1.899       .  S
O419        C429   1.263       .  A
O419        V425   1.896       .  S
O420        C430   1.263       .  A
O420        V633   1.896       .  S
O421        C430   1.263       .  A
O421        V634   1.895   1_554  S
O422        C429   1.263   1_545  A
O422        V426   1.895   1_545  S
O423        C636   1.265       .  A
O423        V634   1.900   1_554  S
O424        C635   1.265       .  A
O424        V426   1.900   1_545  S
V425        O625   1.899   1_565  S
V425        O628   1.896       .  S
V425        V426   2.088       .  T
V426        O629   1.895       .  S
V426        O631   1.900       .  S
C427        O632   1.265       .  A
C427        C655   1.479       .  S
C428        O631   1.265       .  A
C428        C465   1.479       .  S
C429        C443   1.460       .  S
C430        C444   1.460   1_565  S
O431        C441   1.265       .  A
O431        V439   1.899   1_545  S
O432        C442   1.265       .  A
O432        V439   1.898       .  S
O433        C443   1.263       .  A
O433        V439   1.896       .  S
O434        C444   1.263       .  A
O434        V439   1.896   1_545  S
O435        C444   1.263       .  A
O435        V440   1.895   1_545  S
O436        C443   1.263       .  A
O436        V440   1.895       .  S
O437        C442   1.265       .  A
O437        V440   1.899       .  S
O438        C441   1.265       .  A
O438        V440   1.899   1_545  S
V439        V440   2.088       .  T
C441        C456   1.479       .  S
C442        C474   1.479       .  S
C445        C609   1.477       .  S
C445        C446   1.402       .  A
C445        C450   1.401       .  A
C446        C447   1.405       .  A
C446        H451   1.084       .  S
C447        C635   1.479       .  S
C447        C448   1.405       .  A
C448        C449   1.404       .  A
C448        H452   1.084       .  S
C449        C619   1.484       .  S
C449        C450   1.402       .  A
C450        H453   1.084       .  S
C454        C596   1.477       .  S
C454        C455   1.402       .  A
C454        C459   1.401       .  A
C455        C456   1.405       .  A
C455        H460   1.084       .  S
C456        C457   1.405       .  A
C457        C458   1.403       .  A
C457        H461   1.084       .  S
C458        C586   1.480       .  S
C458        C459   1.402       .  A
C459        H462   1.084       .  S
C463        C576   1.479       .  S
C463        C464   1.402       .  A
C463        C468   1.401       .  A
C464        C465   1.405       .  A
C464        H469   1.084       .  S
C465        C466   1.405       .  A
C466        C467   1.403       .  A
C466        H470   1.084       .  S
C467        C566   1.481       .  S
C467        C468   1.402       .  A
C468        H471   1.084       .  S
C472        C556   1.480       .  S
C472        C473   1.403       .  A
C472        C477   1.402       .  A
C473        C474   1.405       .  A
C473        H478   1.084       .  S
C474        C475   1.405       .  A
C475        C476   1.402       .  A
C475        H479   1.084       .  S
C476        C546   1.477       .  S
C476        C477   1.401       .  A
C477        H480   1.084       .  S
C481        C569   1.481       .  S
C481        C482   1.402       .  A
C481        C486   1.403       .  A
C482        H487   1.084       .  S
C483        C579   1.479       .  S
C483        C484   1.402       .  A
C484        H488   1.084       .  S
C485        C527   1.479       .  S
C485        C486   1.405       .  A
C486        H489   1.084       .  S
C490        C549   1.477       .  S
C490        C491   1.401       .  A
C490        C495   1.402       .  A
C491        H496   1.084       .  S
C492        C559   1.480       .  S
C492        C493   1.403       .  A
C493        H497   1.084       .  S
C494        C542   1.479       .  S
C494        C495   1.405       .  A
C495        H498   1.084       .  S
C499        C616   1.484       .  S
C499        C500   1.402       .  A
C499        C504   1.404       .  A
C500        H713   1.084       .  S
C501        C606   1.477       .  S
C501        C502   1.402       .  A
C502        H506   1.084       .  S
C503        C528   1.479       .  S
C503        C504   1.405       .  A
C504        H507   1.084       .  S
H505        C708   1.084       .  S
C508        C599   1.477       .  S
C508        C509   1.401       .  A
C508        C513   1.402       .  A
C509        H514   1.084       .  S
C510        C589   1.480       .  S
C510        C511   1.403       .  A
C511        H515   1.084       .  S
C512        C541   1.479       .  S
C512        C513   1.405       .  A
C513        H516   1.084       .  S
O517        C527   1.265       .  A
O517        V525   1.900   1_556  S
O518        C736   1.265       .  A
O518        V733   1.900       .  S
O519        C529   1.263       .  A
O519        V733   1.895       .  S
O520        C530   1.263       .  A
O520        V525   1.895       .  S
O521        V526   1.896   1_554  S
O522        V734   1.896       .  S
O523        V526   1.899   1_554  S
O524        V734   1.899       .  S
V525        O726   1.900       .  S
V525        O727   1.895   1_554  S
V526        O730   1.896       .  S
V526        O732   1.899       .  S
C528        O726   1.265       .  A
C529        C544   1.460       .  S
C530        C543   1.460       .  S
O531        V539   1.899       .  S
O532        V539   1.899       .  S
O533        V539   1.895       .  S
O534        V539   1.895       .  S
O535        C544   1.263       .  A
O535        V540   1.896       .  S
O536        C543   1.263       .  A
O536        V540   1.896       .  S
O537        C542   1.265       .  A
O537        V540   1.898       .  S
O538        C541   1.265       .  A
O538        V540   1.899       .  S
C545        C546   1.409       .  A
C545        C550   1.406       .  A
C545       Br552   1.930       .  S
C546        C547   1.410       .  A
C547        C548   1.406       .  A
C547       Br554   1.931       .  S
C548        C549   1.409       .  A
C548       Br553   1.930       .  S
C549        C550   1.410       .  A
C550       Br551   1.931       .  S
C555        C556   1.410       .  A
C555        C560   1.407       .  A
C555       Br562   1.931       .  S
C556        C557   1.412       .  A
C557        C558   1.407       .  A
C557       Br564   1.933       .  S
C558        C559   1.410       .  A
C558       Br563   1.931       .  S
C559        C560   1.412       .  A
C560       Br561   1.933       .  S
C565        C566   1.412       .  A
C565        C570   1.407       .  A
C565       Br572   1.934       .  S
C566        C775   1.411       .  A
C567        C774   1.411       .  A
C567        C568   1.407       .  A
C567       Br574   1.930       .  S
C568        C569   1.412   1_554  A
C568       Br573   1.934       .  S
C569        C778   1.411       .  A
C570        C777   1.411       .  A
C570       Br571   1.930       .  S
C575        C784   1.410       .  A
C575        C580   1.407       .  A
C575       Br582   1.929       .  S
C576        C783   1.410       .  A
C576        C577   1.411       .  A
C577        C578   1.407       .  A
C577       Br584   1.932       .  S
C578        C787   1.410       .  A
C578       Br583   1.929       .  S
C579        C786   1.410       .  A
C579        C580   1.411   1_556  A
C580       Br581   1.932       .  S
C585        C586   1.412       .  A
C585        C590   1.407       .  A
C585       Br592   1.934       .  S
C586        C587   1.411       .  A
C587        C588   1.407       .  A
C587       Br594   1.931       .  S
C588        C589   1.412       .  A
C588       Br593   1.934       .  S
C589        C590   1.411       .  A
C590       Br591   1.931       .  S
C595        C596   1.410       .  A
C595        C600   1.406       .  A
C595       Br602   1.930       .  S
C596        C597   1.409       .  A
C597        C598   1.406       .  A
C597       Br604   1.929       .  S
C598        C599   1.410       .  A
C598       Br603   1.930       .  S
C599        C600   1.409       .  A
C600       Br601   1.929       .  S
C605        C606   1.410       .  A
C605        C610   1.406       .  A
C605       Br612   1.929       .  S
C606        C815   1.410   1_554  A
C607        C814   1.410       .  A
C607        C608   1.406       .  A
C607       Br614   1.932       .  S
C608        C609   1.410       .  A
C608       Br613   1.929       .  S
C609        C818   1.410       .  A
C610        C817   1.410   1_554  A
C610       Br611   1.932       .  S
C615        C824   1.413       .  A
C615        C620   1.407       .  A
C615       Br622   1.936       .  S
C616        C823   1.413   1_554  A
C616        C617   1.412       .  A
C617        C618   1.407       .  A
C617       Br624   1.931       .  S
C618        C827   1.413   1_554  A
C618       Br623   1.936       .  S
C619        C826   1.413       .  A
C619        C620   1.412       .  A
C620       Br621   1.931       .  S
O625        C635   1.265       .  A
O626        C636   1.265       .  A
O626        V633   1.899       .  S
O627        C637   1.263       .  A
O627        V633   1.896   1_556  S
O628        C638   1.263       .  A
O629        C638   1.263       .  A
O630        C637   1.263   1_545  A
O630        V634   1.895   1_545  S
O632        V634   1.900   1_545  S
V633        V634   2.088   1_554  T
C636        C673   1.479       .  S
C637        C651   1.460       .  S
C638        C652   1.460   1_565  S
O639        C649   1.265       .  A
O639        V647   1.899   1_545  S
O640        C650   1.265       .  A
O640        V647   1.898       .  S
O641        C651   1.263       .  A
O641        V647   1.896       .  S
O642        C652   1.263       .  A
O642        V647   1.896   1_545  S
O643        C652   1.263       .  A
O643        V648   1.895   1_545  S
O644        C651   1.263       .  A
O644        V648   1.895       .  S
O645        C650   1.265       .  A
O645        V648   1.899       .  S
O646        C649   1.265       .  A
O646        V648   1.899   1_545  S
V647        V648   2.088       .  T
C649        C664   1.479       .  S
C650        C682   1.479       .  S
C653        C817   1.477       .  S
C653        C654   1.402       .  A
C653        C658   1.401       .  A
C654        C655   1.405       .  A
C654        H659   1.084       .  S
C655        C656   1.405       .  A
C656        C657   1.404       .  A
C656        H660   1.084       .  S
C657        C827   1.484       .  S
C657        C658   1.402       .  A
C658        H661   1.084       .  S
C662        C804   1.477       .  S
C662        C663   1.402       .  A
C662        C667   1.401       .  A
C663        C664   1.405       .  A
C663        H668   1.084       .  S
C664        C665   1.405       .  A
C665        C666   1.403       .  A
C665        H669   1.084       .  S
C666        C794   1.480       .  S
C666        C667   1.402       .  A
C667        H670   1.084       .  S
C671        C784   1.479       .  S
C671        C672   1.402       .  A
C671        C676   1.401       .  A
C672        C673   1.405       .  A
C672        H677   1.084       .  S
C673        C674   1.405       .  A
C674        C675   1.403       .  A
C674        H678   1.084       .  S
C675        C774   1.481       .  S
C675        C676   1.402       .  A
C676        H679   1.084       .  S
C680        C764   1.480       .  S
C680        C681   1.403       .  A
C680        C685   1.402       .  A
C681        C682   1.405       .  A
C681        H686   1.084       .  S
C682        C683   1.405       .  A
C683        C684   1.402       .  A
C683        H687   1.084       .  S
C684        C754   1.477       .  S
C684        C685   1.401       .  A
C685        H688   1.084       .  S
C689        C777   1.481       .  S
C689        C690   1.402       .  A
C689        C694   1.403       .  A
C690        H695   1.084       .  S
C691        C787   1.479       .  S
C691        C692   1.402       .  A
C692        H696   1.084       .  S
C693        C735   1.479       .  S
C693        C694   1.405       .  A
C694        H697   1.084       .  S
C698        C757   1.477       .  S
C698        C699   1.401       .  A
C698        C703   1.402       .  A
C699        H704   1.084       .  S
C700        C767   1.480       .  S
C700        C701   1.403       .  A
C701        H705   1.084       .  S
C702        C750   1.479       .  S
C702        C703   1.405       .  A
C703        H706   1.084       .  S
C707        C824   1.484       .  S
C707        C708   1.402       .  A
C707        C712   1.404       .  A
C709        C814   1.477       .  S
C709        C710   1.402       .  A
C710        H714   1.084       .  S
C711        C736   1.479       .  S
C711        C712   1.405       .  A
C712        H715   1.084       .  S
C716        C807   1.477       .  S
C716        C717   1.401       .  A
C716        C721   1.402       .  A
C717        H722   1.084       .  S
C718        C797   1.480       .  S
C718        C719   1.403       .  A
C719        H723   1.084       .  S
C720        C749   1.479       .  S
C720        C721   1.405       .  A
C721        H724   1.084       .  S
O725        C735   1.265       .  A
O725        V733   1.900       .  S
O727        C737   1.263       .  A
O728        C738   1.263       .  A
O728        V733   1.895       .  S
O729        V734   1.896       .  S
O731        V734   1.899       .  S
C737        C752   1.460       .  S
C738        C751   1.460       .  S
O739        V747   1.899       .  S
O740        V747   1.899       .  S
O741        V747   1.895       .  S
O742        V747   1.895       .  S
O743        C752   1.263       .  A
O743        V748   1.896       .  S
O744        C751   1.263       .  A
O744        V748   1.896       .  S
O745        C750   1.265       .  A
O745        V748   1.898       .  S
O746        C749   1.265       .  A
O746        V748   1.899       .  S
C753        C754   1.409       .  A
C753        C758   1.406       .  A
C753       Br760   1.930       .  S
C754        C755   1.410       .  A
C755        C756   1.406       .  A
C755       Br762   1.931       .  S
C756        C757   1.409       .  A
C756       Br761   1.930       .  S
C757        C758   1.410       .  A
C758       Br759   1.931       .  S
C763        C764   1.410       .  A
C763        C768   1.407       .  A
C763       Br770   1.931       .  S
C764        C765   1.412       .  A
C765        C766   1.407       .  A
C765       Br772   1.933       .  S
C766        C767   1.410       .  A
C766       Br771   1.931       .  S
C767        C768   1.412       .  A
C768       Br769   1.933       .  S
C773        C774   1.412   1_556  A
C773        C778   1.407       .  A
C773       Br780   1.934       .  S
C775        C776   1.407       .  A
C775       Br782   1.930       .  S
C776        C777   1.412       .  A
C776       Br781   1.934       .  S
C778       Br779   1.930       .  S
C783        C788   1.407       .  A
C783       Br790   1.929       .  S
C784        C785   1.411   1_554  A
C785        C786   1.407       .  A
C785       Br792   1.932       .  S
C786       Br791   1.929       .  S
C787        C788   1.411       .  A
C788       Br789   1.932       .  S
C793        C794   1.412       .  A
C793        C798   1.407       .  A
C793       Br800   1.934       .  S
C794        C795   1.411       .  A
C795        C796   1.407       .  A
C795       Br802   1.931       .  S
C796        C797   1.412       .  A
C796       Br801   1.934       .  S
C797        C798   1.411       .  A
C798       Br799   1.931       .  S
C803        C804   1.410       .  A
C803        C808   1.406       .  A
C803       Br810   1.930       .  S
C804        C805   1.409       .  A
C805        C806   1.406       .  A
C805       Br812   1.929       .  S
C806        C807   1.410       .  A
C806       Br811   1.930       .  S
C807        C808   1.409       .  A
C808       Br809   1.929       .  S
C813        C814   1.410       .  A
C813        C818   1.406       .  A
C813       Br820   1.929       .  S
C815        C816   1.406       .  A
C815       Br822   1.932       .  S
C816        C817   1.410       .  A
C816       Br821   1.929       .  S
C818       Br819   1.932       .  S
C823        C828   1.407       .  A
C823       Br830   1.936       .  S
C824        C825   1.412       .  A
C825        C826   1.407       .  A
C825       Br832   1.931       .  S
C826       Br831   1.936       .  S
C827        C828   1.412       .  A
C828       Br829   1.931       .  S
