geometry optimzed in LAMMPS
_audit_creation_date              2020-12-01 
_audit_creation_method            'lammps2cif' 
_symmetry_space_group_name_H-M    'P1' 
_symmetry_Int_Tables_number       1 
_symmetry_cell_setting            triclinic 
loop_ 
_symmetry_equiv_pos_as_xyz 
  x,y,z 
_cell_length_a                    82.75032765 
_cell_length_b                    82.4782397152621 
_cell_length_c                    51.87942574564267 
_cell_angle_alpha                 90.19148450600717 
_cell_angle_beta                  90.01922537685023 
_cell_angle_gamma                 90.1549793758455 
loop_ 
_atom_site_label 
_atom_site_type_symbol 
_atom_site_fract_x 
_atom_site_fract_y 
_atom_site_fract_z 
_atom_site_charge 
N1          N  0.70228663  0.20118525  0.25447621    -0.02600
C2          C  0.68887951  0.20099334  0.26989326     0.00000
C3          C  0.67966033  0.18737106  0.26483529    -0.22900
C4          C  0.68752796  0.17877062  0.24602315    -0.23100
C5          C  0.70128266  0.18742722  0.23975601    -0.00100
H6          H  0.66847703  0.18392465  0.27417406     0.13700
H7          H  0.68349885  0.16747301  0.23747093     0.13700
N8          N  0.70279899  0.20045604  0.75569835    -0.02600
C9          C  0.68861265  0.19974500  0.74218392     0.00000
C10         C  0.67972960  0.18634368  0.74956708    -0.22900
C11         C  0.68860818  0.17839567  0.76789428    -0.23100
C12         C  0.70261478  0.18723796  0.77151084    -0.00100
H13         H  0.66813086  0.18254621  0.74197703     0.13700
H14         H  0.68510527  0.16743350  0.77788022     0.13700
N15         N  0.61767906  0.23304760  0.55857404    -0.26400
N16         N  0.63150773  0.23070923  0.54631274    -0.34200
C17         C  0.64332393  0.22833438  0.56383638     0.02000
C18         C  0.63673254  0.22921926  0.58840776     0.08000
C19         C  0.62040392  0.23220475  0.58422781    -0.05100
H20         H  0.65585582  0.22622514  0.55899544     0.08600
H21         H  0.61118627  0.23378478  0.59879629     0.09800
Cu22       Cu  0.63378487  0.23140673  0.50600436     0.44200
Cu23       Cu  0.59581601  0.23777643  0.53929633     0.42000
Cu24       Cu  0.59787880  0.24226305  0.46918369     0.43900
N25         N  0.63362184  0.23369541  0.46568092    -0.33800
N26         N  0.62060161  0.23772184  0.45233080    -0.28000
C27         C  0.62444245  0.23795553  0.42704110    -0.04100
C28         C  0.64064014  0.23391121  0.42417077     0.08100
C29         C  0.64603442  0.23131767  0.44917719     0.01900
H30         H  0.61597729  0.24072222  0.41179957     0.09500
H31         H  0.65806750  0.22774219  0.45495206     0.08600
N32         N  0.57641872  0.24503193  0.49061749    -0.35200
N33         N  0.57575794  0.24323347  0.51596013    -0.27400
C34         C  0.56037710  0.24543786  0.52381033    -0.02600
C35         C  0.55076629  0.24880353  0.50255610     0.06000
C36         C  0.56141480  0.24844305  0.48182179     0.04100
H37         H  0.55646669  0.24454827  0.54364419     0.09200
H38         H  0.55844255  0.25036181  0.46175642     0.08000
N39         N  0.73767019  0.11673000  0.05731161    -0.26400
N40         N  0.73552554  0.13031433  0.04425686    -0.34200
C41         C  0.73273544  0.14255562  0.06096899     0.02000
C42         C  0.73311727  0.13651024  0.08587520     0.08000
C43         C  0.73625356  0.12005261  0.08273863    -0.05100
H44         H  0.73061544  0.15498777  0.05535320     0.08600
H45         H  0.73749594  0.11113991  0.09785126     0.09800
Cu46       Cu  0.73660419  0.13168517  0.00407966     0.44200
Cu47       Cu  0.74269409  0.09433688  0.03932605     0.42000
Cu48       Cu  0.74463850  0.09481548  0.96837979     0.43900
N49         N  0.73793863  0.13076156  0.96388840    -0.33800
N50         N  0.74080362  0.11734960  0.95061238    -0.28000
C51         C  0.74065033  0.12094512  0.92521368    -0.04100
C52         C  0.73755216  0.13740868  0.92237499     0.08100
C53         C  0.73591396  0.14316519  0.94737062     0.01900
H54         H  0.74250892  0.11218419  0.90994479     0.09500
H55         H  0.73329016  0.15548467  0.95318565     0.08600
N56         N  0.74806193  0.07395601  0.99086241    -0.35200
N57         N  0.74741453  0.07374066  0.01638324    -0.27400
C58         C  0.74972903  0.05836902  0.02447259    -0.02600
C59         C  0.75188712  0.04838617  0.00312695     0.06000
C60         C  0.75077926  0.05875472  0.98220075     0.04100
H61         H  0.74954368  0.05467637  0.04445853     0.09200
H62         H  0.75159675  0.05546080  0.96204696     0.08000
N63         N  0.70243381  0.78201621  0.74594965    -0.02600
C64         C  0.70205152  0.79591495  0.76043473     0.00000
C65         C  0.68847670  0.80488042  0.75459178    -0.22900
C66         C  0.68007529  0.79639419  0.73624008    -0.23100
C67         C  0.68879140  0.78252913  0.73098951    -0.00100
H68         H  0.68491090  0.81631074  0.76315188     0.13700
H69         H  0.66889500  0.80011659  0.72721196     0.13700
N70         N  0.70465116  0.78566154  0.25046515    -0.02600
C71         C  0.70493440  0.79956860  0.23629310     0.00000
C72         C  0.69197645  0.80928278  0.24266922    -0.22900
C73         C  0.68324955  0.80112655  0.26102332    -0.23100
C74         C  0.69123276  0.78674808  0.26567523    -0.00100
H75         H  0.68888560  0.82083932  0.23418944     0.13700
H76         H  0.67226606  0.80529809  0.27019111     0.13700
N77         N  0.61688903  0.74969187  0.44265453    -0.26400
N78         N  0.63040148  0.75163675  0.45597344    -0.34200
C79         C  0.64277582  0.75388399  0.43940536     0.02000
C80         C  0.63684066  0.75337402  0.41439380     0.08000
C81         C  0.62035133  0.75070016  0.41728508    -0.05100
H82         H  0.65518707  0.75584121  0.44519682     0.08600
H83         H  0.61149310  0.74956562  0.40204147     0.09800
Cu84       Cu  0.63132035  0.75123481  0.49634900     0.44200
Cu85       Cu  0.59434957  0.74555759  0.45999494     0.42000
Cu86       Cu  0.59417536  0.74227885  0.53077210     0.43900
N87         N  0.62988415  0.75035119  0.53667123    -0.33800
N88         N  0.61640815  0.74707667  0.54940435    -0.28000
C89         C  0.61959658  0.74772137  0.57496137    -0.04100
C90         C  0.63584677  0.75155380  0.57855140     0.08100
C91         C  0.64191152  0.75310207  0.55374118     0.01900
H92         H  0.61070758  0.74563735  0.58987893     0.09500
H93         H  0.65417925  0.75616567  0.54842303     0.08600
N94         N  0.57347571  0.73933969  0.50733907    -0.35200
N95         N  0.57357964  0.74075318  0.48190081    -0.27400
C96         C  0.55839219  0.73869315  0.47294896    -0.02600
C97         C  0.54813469  0.73581871  0.49359664     0.06000
C98         C  0.55817289  0.73630328  0.51507412     0.04100
H99         H  0.55504540  0.73938098  0.45282424     0.09200
H100        H  0.55458505  0.73477180  0.53496407     0.08000
N101        N  0.73551959  0.86527717  0.94431758    -0.26400
N102        N  0.73274830  0.85167875  0.95711314    -0.34200
C103        C  0.73032552  0.83955519  0.94000707     0.02000
C104        C  0.73162042  0.84573955  0.91524903     0.08000
C105        C  0.73486658  0.86210715  0.91880843    -0.05100
H106        H  0.72796686  0.82708924  0.94524644     0.08600
H107        H  0.73686654  0.87105486  0.90394384     0.09800
Cu108      Cu  0.73305321  0.84985205  0.99743998     0.44200
Cu109      Cu  0.74091687  0.88758825  0.96182491     0.42000
Cu110      Cu  0.74511742  0.88665529  0.03106042     0.43900
N111        N  0.73554826  0.85128529  0.03762203    -0.33800
N112        N  0.74011241  0.86468762  0.04972999    -0.28000
C113        C  0.74049012  0.86180330  0.07529029    -0.04100
C114        C  0.73595293  0.84583152  0.07965143     0.08100
C115        C  0.73292763  0.83954711  0.05524813     0.01900
H116        H  0.74368392  0.87076822  0.08969216     0.09500
H117        H  0.72894004  0.82737903  0.05063089     0.08600
N118        N  0.74832148  0.90776244  0.00919257    -0.35200
N119        N  0.74677146  0.90813380  0.98381799    -0.27400
C120        C  0.74907354  0.92349133  0.97565204    -0.02600
C121        C  0.75214827  0.93332729  0.99688252     0.06000
C122        C  0.75157877  0.92288010  0.01778893     0.04100
H123        H  0.74818939  0.92728238  0.95576098     0.09200
H124        H  0.75314556  0.92606498  0.03787706     0.08000
N125        N  0.28301172  0.78097121  0.74326459    -0.02600
C126        C  0.29633298  0.78101686  0.72768754     0.00000
C127        C  0.30598622  0.79426055  0.73317693    -0.22900
C128        C  0.29842093  0.80283843  0.75235213    -0.23100
C129        C  0.28445541  0.79449220  0.75841325    -0.00100
H130        H  0.31722676  0.79750591  0.72382989     0.13700
H131        H  0.30278192  0.81389786  0.76126828     0.13700
N132        N  0.28211624  0.78272230  0.24306274    -0.02600
C133        C  0.29653195  0.78362814  0.25586395     0.00000
C134        C  0.30572564  0.79625167  0.24632396    -0.22900
C135        C  0.29677096  0.80354897  0.22739393    -0.23100
C136        C  0.28241752  0.79507900  0.22555057    -0.00100
H137        H  0.31759514  0.79998578  0.25284344     0.13700
H138        H  0.30041831  0.81386185  0.21591220     0.13700
N139        N  0.36451644  0.74361863  0.54490372    -0.26400
N140        N  0.35103289  0.74632599  0.53189173    -0.34200
C141        C  0.33889897  0.74900946  0.54877315     0.02000
C142        C  0.34498337  0.74792484  0.57363958     0.08000
C143        C  0.36127180  0.74449056  0.57033299    -0.05100
H144        H  0.32656122  0.75160568  0.54330819     0.08600
H145        H  0.37017777  0.74281056  0.58534676     0.09800
Cu146      Cu  0.34989052  0.74633285  0.49155653     0.44200
Cu147      Cu  0.38692162  0.73887846  0.52754940     0.42000
Cu148      Cu  0.38727400  0.73708502  0.45748663     0.43900
N149        N  0.35195590  0.74628447  0.45131920    -0.33800
N150        N  0.36551944  0.74298264  0.43885850    -0.28000
C151        C  0.36286342  0.74456989  0.41330605    -0.04100
C152        C  0.34686374  0.74903632  0.40942517     0.08100
C153        C  0.34036607  0.74996863  0.43402290     0.01900
H154        H  0.37196571  0.74273915  0.39862775     0.09500
H155        H  0.32814273  0.75333270  0.43906407     0.08600
N156        N  0.40791169  0.73353876  0.48035346    -0.35200
N157        N  0.40781200  0.73427074  0.50584893    -0.27400
C158        C  0.42306656  0.73238370  0.51455956    -0.02600
C159        C  0.43333176  0.73046348  0.49360237     0.06000
C160        C  0.42323535  0.73121763  0.47226758     0.04100
H161        H  0.42650273  0.73291267  0.53466660     0.09200
H162        H  0.42681306  0.73057408  0.45224210     0.08000
N163        N  0.24400218  0.86488766  0.93983726    -0.26400
N164        N  0.24578586  0.85109081  0.95252829    -0.34200
C165        C  0.24824488  0.83896297  0.93537315     0.02000
C166        C  0.24807271  0.84531976  0.91061168     0.08000
C167        C  0.24531668  0.86180177  0.91432278    -0.05100
H168        H  0.25032190  0.82645599  0.94060557     0.08600
H169        H  0.24457602  0.87096684  0.89950937     0.09800
Cu170      Cu  0.24548134  0.84948080  0.99298968     0.44200
Cu171      Cu  0.24044069  0.88765954  0.95795217     0.42000
Cu172      Cu  0.23987830  0.88739003  0.02817145     0.43900
N173        N  0.24526832  0.85106164  0.03346810    -0.33800
N174        N  0.24316225  0.86480763  0.04628254    -0.28000
C175        C  0.24382848  0.86168894  0.07181785    -0.04100
C176        C  0.24650632  0.84520791  0.07538182     0.08100
C177        C  0.24735020  0.83891833  0.05055129     0.01900
H178        H  0.24262061  0.87080438  0.08672878     0.09500
H179        H  0.24944444  0.82640840  0.04523807     0.08600
N180        N  0.23757264  0.90867812  0.00615661    -0.35200
N181        N  0.23771868  0.90889492  0.98062745    -0.27400
C182        C  0.23640434  0.92446822  0.97271472    -0.02600
C183        C  0.23544143  0.93459289  0.99421574     0.06000
C184        C  0.23620471  0.92403939  0.01500203     0.04100
H185        H  0.23643298  0.92819541  0.95274282     0.09200
H186        H  0.23601154  0.92730652  0.03520602     0.08000
N187        N  0.28542343  0.20503306  0.25415256    -0.02600
C188        C  0.28687665  0.19193140  0.23813064     0.00000
C189        C  0.30084216  0.18351711  0.24359174    -0.22900
C190        C  0.30842357  0.19164980  0.26329342    -0.23100
C191        C  0.29878479  0.20470784  0.26965281    -0.00100
H192        H  0.30515433  0.17268639  0.23400458     0.13700
H193        H  0.31968898  0.18824321  0.27236894     0.13700
N194        N  0.28278183  0.20349760  0.75476778    -0.02600
C195        C  0.28364146  0.19065365  0.77132994     0.00000
C196        C  0.29791571  0.18232927  0.76764120    -0.22900
C197        C  0.30620614  0.19018644  0.74846413    -0.23100
C198        C  0.29671336  0.20300520  0.74064782    -0.00100
H199        H  0.30194486  0.17172267  0.77803231     0.13700
H200        H  0.31783098  0.18672616  0.74066133     0.13700
N201        N  0.24729062  0.11974099  0.05845848    -0.26400
N202        N  0.24964343  0.13335638  0.04550112    -0.34200
C203        C  0.25226306  0.14559603  0.06232273     0.02000
C204        C  0.25153304  0.13955441  0.08719043     0.08000
C205        C  0.24833346  0.12309252  0.08393527    -0.05100
H206        H  0.25466277  0.15799971  0.05677230     0.08600
H207        H  0.24705908  0.11415122  0.09900997     0.09800
Cu208      Cu  0.24940977  0.13496651  0.00527342     0.44200
Cu209      Cu  0.24329791  0.09700420  0.04048962     0.42000
Cu210      Cu  0.24308583  0.09770545  0.96972725     0.43900
N211        N  0.24853838  0.13403609  0.96499694    -0.33800
N212        N  0.24621315  0.12046781  0.95180352    -0.28000
C213        C  0.24656480  0.12398133  0.92636350    -0.04100
C214        C  0.24926001  0.14053656  0.92335723     0.08100
C215        C  0.25041964  0.14644618  0.94837010     0.01900
H216        H  0.24518907  0.11508565  0.91115036     0.09500
H217        H  0.25267652  0.15886804  0.95411009     0.08600
N218        N  0.24048421  0.07634267  0.99173793    -0.35200
N219        N  0.24055628  0.07601659  0.01728023    -0.27400
C220        C  0.23895524  0.06044136  0.02504501    -0.02600
C221        C  0.23780358  0.05040920  0.00347485     0.06000
C222        C  0.23881153  0.06102021  0.98276941     0.04100
H223        H  0.23878223  0.05666067  0.04499000     0.09200
H224        H  0.23852675  0.05781661  0.96254213     0.08000
N225        N  0.36733738  0.24266026  0.45331666    -0.26400
N226        N  0.35405698  0.23881462  0.46613556    -0.34200
C227        C  0.34215057  0.23541041  0.44912751     0.02000
C228        C  0.34814127  0.23719551  0.42430749     0.08000
C229        C  0.36418022  0.24179059  0.42781416    -0.05100
H230        H  0.33000891  0.23189235  0.45447935     0.08600
H231        H  0.37294667  0.24430943  0.41288383     0.09800
Cu232      Cu  0.35289193  0.23860562  0.50644315     0.44200
Cu233      Cu  0.38927019  0.24866963  0.47160207     0.42000
Cu234      Cu  0.38953613  0.24902712  0.54232017     0.43900
N235        N  0.35402867  0.23956045  0.54673602    -0.33800
N236        N  0.36720966  0.24342672  0.55990188    -0.28000
C237        C  0.36377705  0.24259780  0.58532928    -0.04100
C238        C  0.34769914  0.23798698  0.58836819     0.08100
C239        C  0.34196333  0.23620989  0.56340340     0.01900
H240        H  0.37242335  0.24498027  0.60052879     0.09500
H241        H  0.32992311  0.23253452  0.55769768     0.08600
N242        N  0.41032603  0.25260465  0.51943787    -0.35200
N243        N  0.41017783  0.25259076  0.49389733    -0.27400
C244        C  0.42548558  0.25434227  0.48524719    -0.02600
C245        C  0.43587046  0.25541147  0.50621583     0.06000
C246        C  0.42575751  0.25430035  0.52754891     0.04100
H247        H  0.42886343  0.25424866  0.46510843     0.09200
H248        H  0.42940797  0.25429018  0.54757218     0.08000
N249        N  0.20118489  0.28110967  0.24398394    -0.02600
C250        C  0.19960888  0.29424755  0.25990340     0.00000
C251        C  0.18503290  0.30187369  0.25560374    -0.22900
C252        C  0.17723113  0.29325927  0.23670913    -0.23100
C253        C  0.18731023  0.28069613  0.22965207    -0.00100
H254        H  0.18049629  0.31254516  0.26537604     0.13700
H255        H  0.16554969  0.29608733  0.22850043     0.13700
N256        N  0.20103716  0.28244582  0.74398704    -0.02600
C257        C  0.20007302  0.29555383  0.72795348     0.00000
C258        C  0.18561579  0.30355144  0.73162547    -0.22900
C259        C  0.17729098  0.29523738  0.75020434    -0.23100
C260        C  0.18692469  0.28244668  0.75770606    -0.00100
H261        H  0.18144608  0.31420296  0.72149433     0.13700
H262        H  0.16551109  0.29834974  0.75778402     0.13700
N263        N  0.11747202  0.24535091  0.04644594    -0.26400
N264        N  0.13077570  0.24896858  0.03351863    -0.34200
C265        C  0.14271181  0.25247192  0.05038703     0.02000
C266        C  0.13671631  0.25101114  0.07522610     0.08000
C267        C  0.12064023  0.24651373  0.07190611    -0.05100
H268        H  0.15490838  0.25571157  0.04491534     0.08600
H269        H  0.11190628  0.24409367  0.08692624     0.09800
Cu270      Cu  0.13215948  0.24862441  0.99332918     0.44200
Cu271      Cu  0.09566743  0.23868597  0.02843652     0.42000
Cu272      Cu  0.09635247  0.23615968  0.95778553     0.43900
N273        N  0.13128604  0.24733077  0.95314233    -0.33800
N274        N  0.11832450  0.24278346  0.93998957    -0.28000
C275        C  0.12177520  0.24357018  0.91455899    -0.04100
C276        C  0.13766440  0.24879305  0.91154731     0.08100
C277        C  0.14325282  0.25102886  0.93650624     0.01900
H278        H  0.11330796  0.24060379  0.89936103     0.09500
H279        H  0.15513756  0.25519461  0.94221040     0.08600
N280        N  0.07543174  0.23237881  0.98026213    -0.35200
N281        N  0.07527907  0.23329414  0.00576510    -0.27400
C282        C  0.05994744  0.23141956  0.01411768    -0.02600
C283        C  0.04983066  0.22933416  0.99300895     0.06000
C284        C  0.06013739  0.22994938  0.97187014     0.04100
H285        H  0.05633984  0.23217331  0.03412303     0.09200
H286        H  0.05670414  0.22922923  0.95177881     0.08000
N287        N  0.23937160  0.36515401  0.43979715    -0.26400
N288        N  0.23757357  0.35139525  0.45262469    -0.34200
C289        C  0.23562187  0.33912710  0.43564064     0.02000
C290        C  0.23610507  0.34531791  0.41084732     0.08000
C291        C  0.23853823  0.36187430  0.41428270    -0.05100
H292        H  0.23357973  0.32662873  0.44102167     0.08600
H293        H  0.23934259  0.37094524  0.39932605     0.09800
Cu294      Cu  0.23686749  0.34957104  0.49287089     0.44200
Cu295      Cu  0.24221034  0.38808597  0.45762741     0.42000
Cu296      Cu  0.24027024  0.38726418  0.52772290     0.43900
N297        N  0.23606805  0.35090898  0.53317593    -0.33800
N298        N  0.23729226  0.36474822  0.54600102    -0.28000
C299        C  0.23618636  0.36165915  0.57148965    -0.04100
C300        C  0.23413926  0.34507949  0.57497813     0.08100
C301        C  0.23413800  0.33869605  0.55016872     0.01900
H302        H  0.23667806  0.37085514  0.58638273     0.09500
H303        H  0.23269270  0.32608764  0.54482095     0.08600
N304        N  0.24357396  0.40860931  0.50630953    -0.35200
N305        N  0.24429247  0.40913623  0.48082498    -0.27400
C306        C  0.24618186  0.42479346  0.47353851    -0.02600
C307        C  0.24666714  0.43460022  0.49546115     0.06000
C308        C  0.24500517  0.42379778  0.51576213     0.04100
H309        H  0.24696427  0.42877245  0.45372936     0.09200
H310        H  0.24466282  0.42678329  0.53606876     0.08000
N311        N  0.78446546  0.28024775  0.24653911    -0.02600
C312        C  0.79750865  0.28051513  0.23034664     0.00000
C313        C  0.80640766  0.29449746  0.23410027    -0.22900
C314        C  0.79870194  0.30327852  0.25285813    -0.23100
C315        C  0.78539031  0.29435710  0.26041371    -0.00100
H316        H  0.81725974  0.29805668  0.22391456     0.13700
H317        H  0.80258605  0.31485826  0.26058078     0.13700
N318        N  0.78115851  0.28328277  0.74586260    -0.02600
C319        C  0.79509235  0.28448379  0.75985659     0.00000
C320        C  0.80358612  0.29823904  0.75305411    -0.22900
C321        C  0.79469685  0.30593687  0.73450648    -0.23100
C322        C  0.78108342  0.29658863  0.73021300    -0.00100
H323        H  0.81490098  0.30243136  0.76119736     0.13700
H324        H  0.79791970  0.31710673  0.72486824     0.13700
N325        N  0.74697295  0.36626378  0.44220350    -0.26400
N326        N  0.74888408  0.35248092  0.45482609    -0.34200
C327        C  0.75228891  0.34056428  0.43778851     0.02000
C328        C  0.75256744  0.34703655  0.41313685     0.08000
C329        C  0.74912940  0.36339770  0.41676545    -0.05100
H330        H  0.75451960  0.32808961  0.44303758     0.08600
H331        H  0.74835194  0.37258228  0.40198334     0.09800
Cu332      Cu  0.74728828  0.35062091  0.49503058     0.44200
Cu333      Cu  0.74199910  0.38845520  0.46086864     0.42000
Cu334      Cu  0.74055651  0.38797096  0.53162891     0.43900
N335        N  0.74667472  0.35164293  0.53540189    -0.33800
N336        N  0.74429284  0.36514525  0.54874146    -0.28000
C337        C  0.74502260  0.36162976  0.57412360    -0.04100
C338        C  0.74800585  0.34515663  0.57699787     0.08100
C339        C  0.74897194  0.33926780  0.55196044     0.01900
H340        H  0.74364296  0.37048226  0.58938676     0.09500
H341        H  0.75133117  0.32688975  0.54615645     0.08600
N342        N  0.73803036  0.40916886  0.50941909    -0.35200
N343        N  0.73854086  0.40928211  0.48388975    -0.27400
C344        C  0.73711499  0.42473435  0.47568767    -0.02600
C345        C  0.73565178  0.43493813  0.49691515     0.06000
C346        C  0.73625279  0.42456980  0.51796651     0.04100
H347        H  0.73737559  0.42831402  0.45565437     0.09200
H348        H  0.73570675  0.42799359  0.53809259     0.08000
N349        N  0.86670555  0.24928249  0.94152747    -0.26400
N350        N  0.85311497  0.25185446  0.95434226    -0.34200
C351        C  0.84118537  0.25486178  0.93726774     0.02000
C352        C  0.84750729  0.25414827  0.91250313     0.08000
C353        C  0.86374112  0.25058941  0.91604141    -0.05100
H354        H  0.82879198  0.25735645  0.94253468     0.08600
H355        H  0.87276610  0.24902777  0.90116409     0.09800
Cu356      Cu  0.85144735  0.25095923  0.99474484     0.44200
Cu357      Cu  0.88880116  0.24411319  0.95939421     0.42000
Cu358      Cu  0.88878204  0.24169477  0.02936642     0.43900
N359        N  0.85287817  0.24900327  0.03508526    -0.33800
N360        N  0.86641194  0.24562490  0.04757821    -0.28000
C361        C  0.86329595  0.24539944  0.07311338    -0.04100
C362        C  0.84703813  0.24876111  0.07705116     0.08100
C363        C  0.84085096  0.25096849  0.05242333     0.01900
H364        H  0.87226700  0.24303953  0.08778919     0.09500
H365        H  0.82852043  0.25395170  0.04744639     0.08600
N366        N  0.90967227  0.23873134  0.00674663    -0.35200
N367        N  0.90959169  0.23960701  0.98127278    -0.27400
C368        C  0.92476507  0.23735421  0.97248665    -0.02600
C369        C  0.93499306  0.23492845  0.99332175     0.06000
C370        C  0.92494815  0.23590175  0.01473939     0.04100
H371        H  0.92811951  0.23757864  0.95234117     0.09200
H372        H  0.92849041  0.23473580  0.03471645     0.08000
N373        N  0.20162426  0.70289235  0.26125411    -0.02600
C374        C  0.18733845  0.70219261  0.24805763     0.00000
C375        C  0.17793577  0.68958991  0.25714408    -0.22900
C376        C  0.18663665  0.68208025  0.27615775    -0.23100
C377        C  0.20103821  0.69041876  0.27850204    -0.00100
H378        H  0.16610671  0.68600092  0.25024395     0.13700
H379        H  0.18279872  0.67170390  0.28733621     0.13700
N380        N  0.20050273  0.70299384  0.75933804    -0.02600
C381        C  0.18687848  0.70317327  0.77427009     0.00000
C382        C  0.17692536  0.69032774  0.76787618    -0.22900
C383        C  0.18457860  0.68175986  0.74881306    -0.23100
C384        C  0.19895204  0.68968482  0.74372650    -0.00100
H385        H  0.16546768  0.68725963  0.77668947     0.13700
H386        H  0.18009846  0.67086815  0.73952982     0.13700
N387        N  0.24075707  0.61974323  0.56305943    -0.26400
N388        N  0.23963284  0.63365238  0.55046181    -0.34200
C389        C  0.23703348  0.64576402  0.56753544     0.02000
C390        C  0.23639103  0.63933606  0.59218965     0.08000
C391        C  0.23881276  0.62278256  0.58851978    -0.05100
H392        H  0.23541185  0.65833877  0.56229091     0.08600
H393        H  0.23898749  0.61356759  0.60329991     0.09800
Cu394      Cu  0.24070340  0.63573289  0.51022148     0.44200
Cu395      Cu  0.24438338  0.59693604  0.54473441     0.42000
Cu396      Cu  0.24438216  0.59787134  0.47463694     0.43900
N397        N  0.24035401  0.63436504  0.46985716    -0.33800
N398        N  0.24162231  0.62056142  0.45693450    -0.28000
C399        C  0.24041275  0.62369174  0.43149455    -0.04100
C400        C  0.23822988  0.64024253  0.42811090     0.08100
C401        C  0.23828102  0.64658855  0.45292886     0.01900
H402        H  0.24081627  0.61452264  0.41655399     0.09500
H403        H  0.23667720  0.65915545  0.45835044     0.08600
N404        N  0.24691338  0.57641575  0.49592773    -0.35200
N405        N  0.24692873  0.57582547  0.52143895    -0.27400
C406        C  0.24827453  0.56009998  0.52867498    -0.02600
C407        C  0.24913238  0.55032993  0.50670831     0.06000
C408        C  0.24826734  0.56122923  0.48642469     0.04100
H409        H  0.24836824  0.55603632  0.54847675     0.09200
H410        H  0.24831076  0.55830291  0.46608644     0.08000
N411        N  0.11870696  0.74064684  0.95825214    -0.26400
N412        N  0.13208120  0.73719199  0.97108800    -0.34200
C413        C  0.14387506  0.73354464  0.95405781     0.02000
C414        C  0.13769780  0.73474350  0.92925742     0.08000
C415        C  0.12168240  0.73926572  0.93276638    -0.05100
H416        H  0.15607586  0.73028168  0.95937939     0.08600
H417        H  0.11280969  0.74141626  0.91785618     0.09800
Cu418      Cu  0.13356620  0.73755981  0.01144750     0.44200
Cu419      Cu  0.09689085  0.74706059  0.97618409     0.42000
Cu420      Cu  0.09700351  0.74932482  0.04636544     0.43900
N421        N  0.13198724  0.73826118  0.05178904    -0.33800
N422        N  0.11877742  0.74251730  0.06450889    -0.28000
C423        C  0.12168105  0.74116112  0.09003827    -0.04100
C424        C  0.13746079  0.73586352  0.09366563     0.08100
C425        C  0.14357857  0.73419070  0.06890374     0.01900
H426        H  0.11289037  0.74374771  0.10491060     0.09500
H427        H  0.15553868  0.73008330  0.06364942     0.08600
N428        N  0.07616765  0.75301529  0.02369504    -0.35200
N429        N  0.07625692  0.75223663  0.99819435    -0.27400
C430        C  0.06103142  0.75417101  0.98944374    -0.02600
C431        C  0.05071872  0.75614817  0.01030522     0.06000
C432        C  0.06080112  0.75538236  0.03171954     0.04100
H433        H  0.05763541  0.75358911  0.96932501     0.09200
H434        H  0.05717390  0.75604912  0.05172291     0.08000
N435        N  0.78338088  0.70175827  0.75185332    -0.02600
C436        C  0.78395482  0.68786868  0.73739158     0.00000
C437        C  0.79737009  0.67882734  0.74387102    -0.22900
C438        C  0.80549428  0.68729695  0.76257586    -0.23100
C439        C  0.79675864  0.70121445  0.76735834    -0.00100
H440        H  0.80103397  0.66738163  0.73547400     0.13700
H441        H  0.81653357  0.68357753  0.77204071     0.13700
N442        N  0.78042510  0.70097432  0.24929109    -0.02600
C443        C  0.78012227  0.68718088  0.26373801     0.00000
C444        C  0.79300171  0.67734451  0.25739124    -0.22900
C445        C  0.80170447  0.68530925  0.23880566    -0.23100
C446        C  0.79381137  0.69972220  0.23407179    -0.00100
H447        H  0.79595536  0.66574024  0.26583251     0.13700
H448        H  0.81253669  0.68094245  0.22941385     0.13700
N449        N  0.74618621  0.61938813  0.55359239    -0.26400
N450        N  0.74916082  0.63290689  0.54072031    -0.34200
C451        C  0.75209833  0.64500898  0.55766441     0.02000
C452        C  0.75094465  0.63892664  0.58249238     0.08000
C453        C  0.74719420  0.62261671  0.57908829    -0.05100
H454        H  0.75491085  0.65735359  0.55225964     0.08600
H455        H  0.74533271  0.61371392  0.59406398     0.09800
Cu456      Cu  0.74908617  0.63441193  0.50047300     0.44200
Cu457      Cu  0.74087849  0.59703097  0.53562850     0.42000
Cu458      Cu  0.73924150  0.59728778  0.46565466     0.43900
N459        N  0.74822844  0.63289598  0.46023718    -0.33800
N460        N  0.74457275  0.61941031  0.44759331    -0.28000
C461        C  0.74516230  0.62241596  0.42207392    -0.04100
C462        C  0.74935602  0.63855691  0.41836634     0.08100
C463        C  0.75120762  0.64479381  0.44305978     0.01900
H464        H  0.74273440  0.61346439  0.40727821     0.09500
H465        H  0.75451463  0.65708043  0.44821412     0.08600
N466        N  0.73593587  0.57623071  0.48769344    -0.35200
N467        N  0.73648324  0.57612072  0.51319815    -0.27400
C468        C  0.73468791  0.56069190  0.52139937    -0.02600
C469        C  0.73303341  0.55052393  0.50012389     0.06000
C470        C  0.73385154  0.56088451  0.47910527     0.04100
H471        H  0.73506717  0.55706985  0.54140889     0.09200
H472        H  0.73337378  0.55748017  0.45896571     0.08000
N473        N  0.86717359  0.73471851  0.05528140    -0.26400
N474        N  0.85397925  0.73169090  0.04166052    -0.34200
C475        C  0.84159707  0.72879554  0.05789539     0.02000
C476        C  0.84716006  0.73005557  0.08304171     0.08000
C477        C  0.86347096  0.73380093  0.08058996    -0.05100
H478        H  0.82938661  0.72606986  0.05178894     0.08600
H479        H  0.87201652  0.73582094  0.09605894     0.09800
Cu480      Cu  0.85329046  0.73190476  0.00141871     0.44200
Cu481      Cu  0.88953871  0.74026487  0.03830382     0.42000
Cu482      Cu  0.89081096  0.74097389  0.96767899     0.43900
N483        N  0.85510989  0.73283547  0.96129894    -0.33800
N484        N  0.86868944  0.73602229  0.94878933    -0.28000
C485        C  0.86560831  0.73554222  0.92319914    -0.04100
C486        C  0.84932913  0.73193486  0.91942242     0.08100
C487        C  0.84313139  0.73032049  0.94409695     0.01900
H488        H  0.87456170  0.73768593  0.90840206     0.09500
H489        H  0.83079161  0.72744156  0.94925026     0.08600
N490        N  0.91105799  0.74563705  0.99145242    -0.35200
N491        N  0.91047737  0.74540236  0.01696999    -0.27400
C492        C  0.92535946  0.74857905  0.02639919    -0.02600
C493        C  0.93593908  0.75093128  0.00599403     0.06000
C494        C  0.92638826  0.74898306  0.98412797     0.04100
H495        H  0.92830564  0.74892640  0.04670981     0.09200
H496        H  0.93034632  0.74968787  0.96429448     0.08000
C497        C  0.75871774  0.66595285  0.31241716     0.21200
C498        C  0.75412304  0.65147217  0.32462756    -0.38600
C499        C  0.75301577  0.65206433  0.35159871     0.20200
C500        C  0.75624761  0.66603449  0.36548877     0.22900
C501        C  0.76078403  0.68060710  0.35323756    -0.39100
C502        C  0.76187912  0.68003093  0.32610936     0.21700
N503        N  0.76291963  0.66769921  0.28756632    -0.32400
C504        C  0.76895859  0.68292115  0.28507225    -0.10000
C505        C  0.76824508  0.69111585  0.30872327    -0.28800
N506        N  0.75528627  0.66309706  0.39102163    -0.45400
C507        C  0.75139049  0.64713827  0.39339038    -0.04700
C508        C  0.74986187  0.63990278  0.36913059    -0.22000
H509        H  0.75228148  0.64032163  0.31395119     0.19800
H510        H  0.76395258  0.69138250  0.36409696     0.18600
H511        H  0.77364508  0.70273829  0.31330768     0.14800
H512        H  0.74715766  0.62733600  0.36484957     0.14700
H513        H  0.76327038  0.65850042  0.27369569     0.32900
H514        H  0.75740873  0.67139124  0.40590292     0.35600
C515        C  0.80378991  0.71773947  0.17393287     0.21200
C516        C  0.80308028  0.71860276  0.14683194    -0.38600
C517        C  0.81751714  0.72302156  0.13425794     0.20200
C518        C  0.83161021  0.72632224  0.14764046     0.22900
C519        C  0.83234722  0.72540884  0.17467762    -0.39100
C520        C  0.81792862  0.72099720  0.18723246     0.21700
N521        N  0.79241981  0.71175445  0.18999171    -0.32400
C522        C  0.79939279  0.71096707  0.21365487    -0.10000
C523        C  0.81526289  0.71678141  0.21259522    -0.28800
N524        N  0.84387960  0.72938149  0.13124784    -0.45400
C525        C  0.83762092  0.72800391  0.10713294    -0.04700
C526        C  0.82117223  0.72407306  0.10829366    -0.22000
H527        H  0.79225417  0.71541967  0.13623311     0.19800
H528        H  0.84352201  0.72731094  0.18512044     0.18600
H529        H  0.82425546  0.71614595  0.22771375     0.14800
H530        H  0.81304042  0.72192485  0.09229920     0.14700
H531        H  0.78128639  0.70678819  0.18464685     0.32900
H532        H  0.85583723  0.73195211  0.13620032     0.35600
C533        C  0.76549850  0.67949751  0.67645077     0.21200
C534        C  0.76371172  0.68121407  0.64954610    -0.38600
C535        C  0.75902416  0.66714986  0.63585612     0.20200
C536        C  0.75634111  0.65250250  0.64805382     0.22900
C537        C  0.75820532  0.65076277  0.67482665    -0.39100
C538        C  0.76285927  0.66477992  0.68845877     0.21700
N539        N  0.77158594  0.69044271  0.69335231    -0.32400
C540        C  0.77299949  0.68258937  0.71623150    -0.10000
C541        C  0.76756445  0.66659252  0.71379538    -0.28800
N542        N  0.75287017  0.64075912  0.63077520    -0.45400
C543        C  0.75339571  0.64785627  0.60721498    -0.04700
C544        C  0.75714470  0.66436996  0.60965868    -0.22000
H545        H  0.76634847  0.69251486  0.63985626     0.19800
H546        H  0.75674043  0.63916419  0.68425416     0.18600
H547        H  0.76852982  0.65707368  0.72802569     0.14800
H548        H  0.75870793  0.67308545  0.59431140     0.14700
H549        H  0.77601684  0.70197831  0.68899552     0.32900
H550        H  0.75067824  0.62856428  0.63478017     0.35600
C551        C  0.82003913  0.72208739  0.81442394     0.21200
C552        C  0.83495978  0.72593127  0.82600198    -0.38600
C553        C  0.83487098  0.72769345  0.85294759     0.20200
C554        C  0.82096414  0.72568954  0.86735048     0.22900
C555        C  0.80599721  0.72181017  0.85575220    -0.39100
C556        C  0.80606097  0.72012060  0.82867713     0.21700
N557        N  0.81755357  0.71768268  0.78976220    -0.32400
C558        C  0.80193592  0.71270207  0.78791454    -0.10000
C559        C  0.79429729  0.71426234  0.81188331    -0.28800
N560        N  0.82428840  0.72709646  0.89272787    -0.45400
C561        C  0.84043790  0.73003538  0.89457732    -0.04700
C562        C  0.84741525  0.73052496  0.87005536    -0.22000
H563        H  0.84599380  0.72683814  0.81489612     0.19800
H564        H  0.79523536  0.71961811  0.86707884     0.18600
H565        H  0.78246972  0.70969970  0.81708292     0.14800
H566        H  0.86003519  0.73230937  0.86536807     0.14700
H567        H  0.82644941  0.71645000  0.77561437     0.32900
H568        H  0.81607929  0.72585872  0.90788099     0.35600
C569        C  0.00770397  0.75735750  0.02193999     0.21200
C570        C  0.99333324  0.75611445  0.03639098    -0.38600
C571        C  0.97881391  0.75609792  0.02217465     0.20200
C572        C  0.97861923  0.75729189  0.99559049     0.22900
C573        C  0.99297589  0.75861622  0.98116514    -0.39100
C574        C  0.00748545  0.75854206  0.99535753     0.21700
N575        N  0.02304816  0.75678604  0.03073562    -0.32400
C576        C  0.03274457  0.75749087  0.00961788    -0.10000
C577        C  0.02340473  0.75867869  0.98720817    -0.28800
N578        N  0.96338069  0.75606758  0.98652137    -0.45400
C579        C  0.95370377  0.75397272  0.00740804    -0.04700
C580        C  0.96294429  0.75407703  0.03003168    -0.22000
H581        H  0.99346055  0.75482100  0.05714350     0.19800
H582        H  0.99287765  0.75921013  0.96032846     0.18600
H583        H  0.02766223  0.75913201  0.96750554     0.14800
H584        H  0.95870879  0.75230359  0.04955245     0.14700
H585        H  0.02667541  0.75550873  0.04990798     0.32900
H586        H  0.95984890  0.75618578  0.96718815     0.35600
C587        C  0.22029155  0.68015600  0.68545087     0.21200
C588        C  0.22429543  0.68202943  0.65915761    -0.38600
C589        C  0.22806920  0.66766798  0.64550389     0.20200
C590        C  0.22787224  0.65261900  0.65718073     0.22900
C591        C  0.22388664  0.65075359  0.68333206    -0.39100
C592        C  0.22014645  0.66503844  0.69690679     0.21700
N593        N  0.21439024  0.69149818  0.70184384    -0.32400
C594        C  0.21033142  0.68347904  0.72379043    -0.10000
C595        C  0.21391449  0.66700400  0.72132499    -0.28800
N596        N  0.23102032  0.64076717  0.63993605    -0.45400
C597        C  0.23322987  0.64818340  0.61687004    -0.04700
C598        C  0.23151364  0.66501922  0.61965099    -0.22000
H599        H  0.22390475  0.69371970  0.64976995     0.19800
H600        H  0.22312733  0.63893120  0.69225047     0.18600
H601        H  0.21082364  0.65745390  0.73472554     0.14800
H602        H  0.23231294  0.67408466  0.60467538     0.14700
H603        H  0.21185203  0.70358670  0.69751806     0.32900
H604        H  0.23125996  0.62833896  0.64357486     0.35600
C605        C  0.16507684  0.72601522  0.87680378     0.21200
C606        C  0.17954160  0.72095775  0.86480575    -0.38600
C607        C  0.17931199  0.72018559  0.83761190     0.20200
C608        C  0.16564084  0.72407365  0.82363339     0.22900
C609        C  0.15121485  0.72902807  0.83560198    -0.39100
C610        C  0.15147942  0.72987643  0.86263839     0.21700
N611        N  0.16197278  0.72725848  0.90228685    -0.32400
C612        C  0.14627516  0.73195315  0.90438127    -0.10000
C613        C  0.13936714  0.73367710  0.87996055    -0.28800
N614        N  0.16771109  0.72047290  0.79855860    -0.45400
C615        C  0.18275394  0.71411454  0.79612300    -0.04700
C616        C  0.19045362  0.71391145  0.82018642    -0.22000
H617        H  0.19002874  0.71738229  0.87586143     0.19800
H618        H  0.14037501  0.73153258  0.82465031     0.18600
H619        H  0.12707677  0.73709893  0.87543683     0.14800
H620        H  0.20177695  0.70807153  0.82483287     0.14700
H621        H  0.17001565  0.72490373  0.91732245     0.32900
H622        H  0.15878542  0.72075841  0.78432690     0.35600
C623        C  0.22437857  0.66839934  0.32385990     0.21200
C624        C  0.22932455  0.65376745  0.33522913    -0.38600
C625        C  0.23200685  0.65420175  0.36195949     0.20200
C626        C  0.22992257  0.66816952  0.37636955     0.22900
C627        C  0.22496694  0.68285388  0.36497490    -0.39100
C628        C  0.22229486  0.68243514  0.33812407     0.21700
N629        N  0.21891802  0.67041112  0.29966806    -0.32400
C630        C  0.21318813  0.68578230  0.29818605    -0.10000
C631        C  0.21526092  0.69374057  0.32184202    -0.28800
N632        N  0.23219009  0.66509960  0.40164907    -0.45400
C633        C  0.23568203  0.64903712  0.40340807    -0.04700
C634        C  0.23572884  0.64188139  0.37894450    -0.22000
H635        H  0.23028716  0.64264172  0.32421906     0.19800
H636        H  0.22265004  0.69361759  0.37635994     0.18600
H637        H  0.21040759  0.70542635  0.32731456     0.14800
H638        H  0.23771696  0.62925099  0.37424642     0.14700
H639        H  0.21760283  0.66132933  0.28574121     0.32900
H640        H  0.23096925  0.67334946  0.41683345     0.35600
C641        C  0.16442266  0.72178777  0.19886892     0.21200
C642        C  0.14986206  0.72629946  0.18691408    -0.38600
C643        C  0.15050389  0.72861951  0.16012739     0.20200
C644        C  0.16458023  0.72651065  0.14618805     0.22900
C645        C  0.17922517  0.72203496  0.15820415    -0.39100
C646        C  0.17861275  0.71979644  0.18515443     0.21700
N647        N  0.16641391  0.71725139  0.22352138    -0.32400
C648        C  0.18195607  0.71225902  0.22591048    -0.10000
C649        C  0.19004840  0.71383980  0.20233203    -0.28800
N650        N  0.16178368  0.72879504  0.12081076    -0.45400
C651        C  0.14582307  0.73247970  0.11855390    -0.04700
C652        C  0.13842981  0.73247630  0.14277471    -0.22000
H653        H  0.13869813  0.72744239  0.19762457     0.19800
H654        H  0.19016730  0.71996970  0.14727029     0.18600
H655        H  0.20209968  0.70965950  0.19776049     0.14800
H656        H  0.12584477  0.73474195  0.14710743     0.14700
H657        H  0.15736731  0.71644295  0.23750180     0.32900
H658        H  0.17022421  0.72782693  0.10592731     0.35600
C659        C  0.73234298  0.47781937  0.51057435     0.21200
C660        C  0.73125802  0.49190182  0.52594577    -0.38600
C661        C  0.73123605  0.50678585  0.51267934     0.20200
C662        C  0.73215832  0.50759038  0.48610052     0.22900
C663        C  0.73321833  0.49350750  0.47072312    -0.39100
C664        C  0.73328781  0.47862483  0.48399797     0.21700
N665        N  0.73295641  0.46226881  0.51855411    -0.32400
C666        C  0.73431033  0.45300014  0.49694229    -0.10000
C667        C  0.73453519  0.46284485  0.47500198    -0.28800
N668        N  0.73248347  0.52316785  0.47822163    -0.45400
C669        C  0.73189358  0.53245158  0.49990787    -0.04700
C670        C  0.73100781  0.52259349  0.52178030    -0.22000
H671        H  0.73070914  0.49132463  0.54676491     0.19800
H672        H  0.73414457  0.49409989  0.44993818     0.18600
H673        H  0.73563527  0.45900268  0.45511945     0.14800
H674        H  0.73065302  0.52645251  0.54172514     0.14700
H675        H  0.73259616  0.45823307  0.53760599     0.32900
H676        H  0.73347650  0.52721619  0.45922233     0.35600
C677        C  0.76170004  0.30401849  0.67015092     0.21200
C678        C  0.76038271  0.30249903  0.64312108    -0.38600
C679        C  0.75554596  0.31653370  0.62970420     0.20200
C680        C  0.75233966  0.33098071  0.64227922     0.22900
C681        C  0.75366154  0.33250458  0.66918260    -0.39100
C682        C  0.75841178  0.31850594  0.68255117     0.21700
N683        N  0.76819469  0.29327492  0.68681078    -0.32400
C684        C  0.76923302  0.30102082  0.70992870    -0.10000
C685        C  0.76304794  0.31671896  0.70790367    -0.28800
N686        N  0.74903116  0.34282095  0.62525544    -0.45400
C687        C  0.75012018  0.33598670  0.60147928    -0.04700
C688        C  0.75410258  0.31953403  0.60351803    -0.22000
H689        H  0.76356838  0.29141154  0.63315654     0.19800
H690        H  0.75183674  0.34398376  0.67891154     0.18600
H691        H  0.76378756  0.32624115  0.72227151     0.14800
H692        H  0.75615559  0.31102882  0.58794252     0.14700
H693        H  0.77333906  0.28210937  0.68207401     0.32900
H694        H  0.74655952  0.35492270  0.62959563     0.35600
C695        C  0.81883357  0.26498891  0.80761453     0.21200
C696        C  0.83368179  0.26101926  0.81917053    -0.38600
C697        C  0.83350140  0.25927458  0.84609548     0.20200
C698        C  0.81959056  0.26141222  0.86045407     0.22900
C699        C  0.80471383  0.26539363  0.84887071    -0.39100
C700        C  0.80485561  0.26703546  0.82185720     0.21700
N701        N  0.81635568  0.26917197  0.78291925    -0.32400
C702        C  0.80072061  0.27397574  0.78113764    -0.10000
C703        C  0.79307995  0.27264067  0.80507665    -0.28800
N704        N  0.82276926  0.25980702  0.88580250    -0.45400
C705        C  0.83882451  0.25659082  0.88769191    -0.04700
C706        C  0.84590896  0.25615462  0.86322850    -0.22000
H707        H  0.84470138  0.25991669  0.80807293     0.19800
H708        H  0.79393952  0.26758874  0.86015860     0.18600
H709        H  0.78117059  0.27699889  0.81015305     0.14800
H710        H  0.85848784  0.25409474  0.85859101     0.14700
H711        H  0.82517693  0.27013191  0.76860436     0.32900
H712        H  0.81452004  0.26101420  0.90090869     0.35600
C713        C  0.76605308  0.31834636  0.30854130     0.21200
C714        C  0.76213439  0.33327860  0.32013599    -0.38600
C715        C  0.75981923  0.33306919  0.34696149     0.20200
C716        C  0.76137906  0.31904331  0.36124297     0.22900
C717        C  0.76538462  0.30406358  0.34962148    -0.39100
C718        C  0.76760781  0.30424254  0.32264454     0.21700
N719        N  0.77042324  0.31584638  0.28389806    -0.32400
C720        C  0.77491131  0.30006623  0.28188998    -0.10000
C721        C  0.77316210  0.29235298  0.30575268    -0.28800
N722        N  0.75902518  0.32219660  0.38651737    -0.45400
C723        C  0.75590251  0.33835143  0.38841372    -0.04700
C724        C  0.75633320  0.34551352  0.36402923    -0.22000
H725        H  0.76136681  0.34436968  0.30911502     0.19800
H726        H  0.76706342  0.29316309  0.36085139     0.18600
H727        H  0.77711655  0.28026421  0.31072250     0.14800
H728        H  0.75447078  0.35815274  0.35938895     0.14700
H729        H  0.77162279  0.32473040  0.26972276     0.32900
H730        H  0.75959666  0.31384674  0.40157378     0.35600
C731        C  0.81950400  0.25854701  0.18307947     0.21200
C732        C  0.83413000  0.25440042  0.17092561    -0.38600
C733        C  0.83350596  0.25236049  0.14404487     0.20200
C734        C  0.81937289  0.25434663  0.13021146     0.22900
C735        C  0.80468568  0.25846073  0.14240953    -0.39100
C736        C  0.80529015  0.26047148  0.16941961     0.21700
N737        N  0.81759674  0.26343358  0.20764122    -0.32400
C738        C  0.80212102  0.26866686  0.21000793    -0.10000
C739        C  0.79398078  0.26679069  0.18650701    -0.28800
N740        N  0.82227579  0.25300107  0.10468160    -0.45400
C741        C  0.83838794  0.25016311  0.10218232    -0.04700
C742        C  0.84574260  0.24958981  0.12643011    -0.22000
H743        H  0.84537370  0.25360787  0.18150960     0.19800
H744        H  0.79376894  0.26071744  0.13152008     0.18600
H745        H  0.78215193  0.27144978  0.18167492     0.14800
H746        H  0.85845104  0.24799605  0.13060882     0.14700
H747        H  0.82679117  0.26480633  0.22128669     0.32900
H748        H  0.81386637  0.25438083  0.08984431     0.35600
C749        C  0.24973132  0.47810609  0.48689040     0.21200
C750        C  0.25053736  0.49291932  0.47340245    -0.38600
C751        C  0.25052748  0.50716001  0.48859324     0.20200
C752        C  0.24980148  0.50671456  0.51520784     0.22900
C753        C  0.24902633  0.49190794  0.52868215    -0.39100
C754        C  0.24901210  0.47768153  0.51350446     0.21700
N755        N  0.24918143  0.46292343  0.47696359    -0.32400
C756        C  0.24806959  0.45267211  0.49738678    -0.10000
C757        C  0.24798181  0.46152241  0.52048064    -0.28800
N758        N  0.24951113  0.52189665  0.52513518    -0.45400
C759        C  0.24998111  0.53220839  0.50473737    -0.04700
C760        C  0.25069463  0.52337013  0.48163086    -0.22000
H761        H  0.25094305  0.49334423  0.45256451     0.19800
H762        H  0.24829160  0.49148734  0.54949658     0.18600
H763        H  0.24705967  0.45679472  0.53985297     0.14800
H764        H  0.25099252  0.52814717  0.46223960     0.14700
H765        H  0.24936256  0.45975414  0.45745093     0.32900
H766        H  0.24874222  0.52503413  0.54461885     0.35600
C767        C  0.97754506  0.22924567  0.00549560     0.21200
C768        C  0.99170533  0.22804328  0.02043462    -0.38600
C769        C  0.00638390  0.22774151  0.00670521     0.20200
C770        C  0.00693605  0.22846972  0.98009113     0.22900
C771        C  0.99276308  0.22961366  0.96513813    -0.39100
C772        C  0.97808282  0.23001269  0.97888224     0.21700
N773        N  0.96219614  0.23056402  0.01399520    -0.32400
C774        C  0.95280636  0.23228592  0.99269135    -0.10000
C775        C  0.96233556  0.23189448  0.97040653    -0.28800
N776        N  0.02238789  0.22868267  0.97175264    -0.45400
C777        C  0.03182584  0.22820565  0.99319176    -0.04700
C778        C  0.02220354  0.22752697  0.01535010    -0.22000
H779        H  0.99134516  0.22775369  0.04128182     0.19800
H780        H  0.99315313  0.23050868  0.94433923     0.18600
H781        H  0.95834599  0.23323576  0.95066634     0.14800
H782        H  0.02622276  0.22734960  0.03519502     0.14700
H783        H  0.95840127  0.23065962  0.03319710     0.32900
H784        H  0.02625700  0.22957208  0.95264399     0.35600
C785        C  0.21966012  0.30435514  0.66834261     0.21200
C786        C  0.22196318  0.30265859  0.64152541    -0.38600
C787        C  0.22642109  0.31683334  0.62810839     0.20200
C788        C  0.22830692  0.33161248  0.64042725     0.22900
C789        C  0.22591580  0.33333723  0.66714272    -0.39100
C790        C  0.22159824  0.31916145  0.68055076     0.21700
N791        N  0.21366763  0.29322264  0.68489348    -0.32400
C792        C  0.21166325  0.30098121  0.70782666    -0.10000
C793        C  0.21658693  0.31716525  0.70571065    -0.28800
N794        N  0.23161683  0.34342001  0.62327445    -0.45400
C795        C  0.23182018  0.33619550  0.59970064    -0.04700
C796        C  0.22871219  0.31956398  0.60202392    -0.22000
H797        H  0.21989679  0.29125396  0.63167367     0.19800
H798        H  0.22678374  0.34500146  0.67667400     0.18600
H799        H  0.21496967  0.32666495  0.71991809     0.14800
H800        H  0.22773901  0.31073266  0.58662937     0.14700
H801        H  0.20959932  0.28158859  0.68018593     0.32900
H802        H  0.23322468  0.35571509  0.62734252     0.35600
C803        C  0.17862251  0.26404024  0.81865595     0.21200
C804        C  0.18008742  0.26255057  0.84565609    -0.38600
C805        C  0.16603144  0.25765674  0.85898852     0.20200
C806        C  0.15163134  0.25449515  0.84637362     0.22900
C807        C  0.15015134  0.25603007  0.81951221    -0.39100
C808        C  0.16415311  0.26088523  0.80623891     0.21700
N809        N  0.18951388  0.27034836  0.80199386    -0.32400
C810        C  0.18184920  0.27140920  0.77887419    -0.10000
C811        C  0.16607413  0.26544564  0.78089555    -0.28800
N812        N  0.13984774  0.25079511  0.86331720    -0.45400
C813        C  0.14667319  0.25161624  0.88708350    -0.04700
C814        C  0.16304098  0.25585789  0.88511690    -0.22000
H815        H  0.19118226  0.26555407  0.85565986     0.19800
H816        H  0.13873470  0.25417649  0.80973504     0.18600
H817        H  0.15669472  0.26603021  0.76638056     0.14800
H818        H  0.17154988  0.25766200  0.90071294     0.14700
H819        H  0.20082842  0.27518019  0.80664718     0.32900
H820        H  0.12780536  0.24819705  0.85895793     0.35600
C821        C  0.22034365  0.30391163  0.31845160     0.21200
C822        C  0.22370665  0.30229844  0.34497232    -0.38600
C823        C  0.22800878  0.31666505  0.35816034     0.20200
C824        C  0.22885963  0.33150339  0.34587997     0.22900
C825        C  0.22543732  0.33312821  0.31948865    -0.39100
C826        C  0.22119521  0.31880689  0.30634065     0.21700
N827        N  0.21422473  0.29255876  0.30228558    -0.32400
C828        C  0.21103300  0.30033126  0.27980105    -0.10000
C829        C  0.21533628  0.31667708  0.28170438    -0.28800
N830        N  0.23224314  0.34346198  0.36283329    -0.45400
C831        C  0.23349742  0.33629121  0.38626381    -0.04700
C832        C  0.23100075  0.31953678  0.38404441    -0.22000
H833        H  0.22247774  0.29081726  0.35482858     0.19800
H834        H  0.22546172  0.34481665  0.31006431     0.18600
H835        H  0.21293204  0.32609649  0.26774964     0.14800
H836        H  0.23087310  0.31069993  0.39941048     0.14700
H837        H  0.21096675  0.28069255  0.30702256     0.32900
H838        H  0.23313605  0.35581562  0.35878428     0.35600
C839        C  0.16475385  0.25826068  0.12741787     0.21200
C840        C  0.17947387  0.26266956  0.13938182    -0.38600
C841        C  0.17930686  0.26345857  0.16658244     0.20200
C842        C  0.16547332  0.26013449  0.18056862     0.22900
C843        C  0.15082781  0.25578986  0.16864352    -0.39100
C844        C  0.15101657  0.25496405  0.14163431     0.21700
N845        N  0.16149442  0.25729005  0.10194712    -0.32400
C846        C  0.14556107  0.25332832  0.09997372    -0.10000
C847        C  0.13867141  0.25179735  0.12440999    -0.28800
N848        N  0.16765308  0.26379708  0.20558028    -0.45400
C849        C  0.18290526  0.26971369  0.20796948    -0.04700
C850        C  0.19067339  0.26944853  0.18396859    -0.22000
H851        H  0.19009131  0.26585084  0.12830273     0.19800
H852        H  0.13987942  0.25379650  0.17960813     0.18600
H853        H  0.12623285  0.24895074  0.12901157     0.14800
H854        H  0.20220984  0.27489857  0.17928255     0.14700
H855        H  0.16958676  0.25934883  0.08685900     0.32900
H856        H  0.15868727  0.26392784  0.21974555     0.35600
C857        C  0.25798596  0.23830553  0.74728624     0.21200
C858        C  0.25432045  0.25465639  0.74223763    -0.38600
C859        C  0.23794005  0.25899398  0.74446758     0.20200
C860        C  0.22616120  0.24786548  0.75131034     0.22900
C861        C  0.22982799  0.23154645  0.75636283    -0.39100
C862        C  0.24617336  0.22721629  0.75413600     0.21700
N863        N  0.27259706  0.23116434  0.74650558    -0.32400
C864        C  0.27005909  0.21541744  0.75298350    -0.10000
C865        C  0.25371822  0.21248593  0.75790350    -0.28800
N866        N  0.21151786  0.25490006  0.75206020    -0.45400
C867        C  0.21391960  0.27066029  0.74560629    -0.04700
C868        C  0.23027310  0.27370172  0.74069024    -0.22000
H869        H  0.26353994  0.26334869  0.73689226     0.19800
H870        H  0.22061004  0.22284966  0.76169344     0.18600
H871        H  0.24806683  0.20114343  0.76323736     0.14800
H872        H  0.23584392  0.28508279  0.73534502     0.14700
H873        H  0.28360359  0.23677831  0.74237568     0.32900
H874        H  0.20057506  0.24917103  0.75612550     0.35600
C875        C  0.31909870  0.22414025  0.69247931     0.21200
C876        C  0.33357470  0.22955479  0.68117603    -0.38600
C877        C  0.33334700  0.23159676  0.65432232     0.20200
C878        C  0.31973934  0.22839726  0.63968684     0.22900
C879        C  0.30517685  0.22296677  0.65103399    -0.39100
C880        C  0.30536531  0.22101857  0.67807672     0.21700
N881        N  0.31691871  0.21964936  0.71712241    -0.32400
C882        C  0.30169429  0.21359738  0.71886815    -0.10000
C883        C  0.29401848  0.21436864  0.69481818    -0.28800
N884        N  0.32299113  0.23046708  0.61439360    -0.45400
C885        C  0.33879175  0.23501929  0.61290691    -0.04700
C886        C  0.34558700  0.23589333  0.63752751    -0.22000
H887        H  0.34442837  0.23151550  0.69242195     0.19800
H888        H  0.29464998  0.21997134  0.63956657     0.18600
H889        H  0.28241880  0.20919208  0.68969562     0.14800
H890        H  0.35795134  0.23886055  0.64247937     0.14700
H891        H  0.32574046  0.21949509  0.73152345     0.32900
H892        H  0.31501076  0.22859680  0.59906107     0.35600
C893        C  0.26396166  0.18222380  0.83110226     0.21200
C894        C  0.26216102  0.18357600  0.85808018    -0.38600
C895        C  0.25702793  0.16946238  0.87107626     0.20200
C896        C  0.25397657  0.15507144  0.85819380     0.22900
C897        C  0.25579289  0.15371015  0.83130401    -0.39100
C898        C  0.26086509  0.16780354  0.81833416     0.21700
N899        N  0.27062604  0.19315994  0.81486265    -0.32400
C900        C  0.27190851  0.18565712  0.79157454    -0.10000
C901        C  0.26583920  0.16984525  0.79314227    -0.28800
N902        N  0.25043137  0.14311463  0.87498333    -0.45400
C903        C  0.25126701  0.14982839  0.89889924    -0.04700
C904        C  0.25524645  0.16631641  0.89715610    -0.22000
H905        H  0.26520244  0.19461233  0.86835061     0.19800
H906        H  0.25408174  0.14228941  0.82132265     0.18600
H907        H  0.26668727  0.16048628  0.77853275     0.14800
H908        H  0.25720824  0.17473745  0.91289222     0.14700
H909        H  0.27557183  0.20438316  0.81995043     0.32900
H910        H  0.24809451  0.13100059  0.87044276     0.35600
C911        C  0.24924967  0.22764702  0.24721002     0.21200
C912        C  0.23301533  0.23034780  0.24057812    -0.38600
C913        C  0.22768475  0.24645690  0.24237337     0.20200
C914        C  0.23776316  0.25894304  0.25024218     0.22900
C915        C  0.25402841  0.25624138  0.25690216    -0.39100
C916        C  0.25936863  0.24009846  0.25511421     0.21700
N917        N  0.25721427  0.21346726  0.24659424    -0.32400
C918        C  0.27257721  0.21686957  0.25404236    -0.10000
C919        C  0.27439158  0.23336183  0.25971336    -0.28800
N920        N  0.22967422  0.27308001  0.25097931    -0.45400
C921        C  0.21429044  0.26954007  0.24365725    -0.04700
C922        C  0.21261689  0.25305236  0.23797470    -0.22000
H923        H  0.22510318  0.22059849  0.23445617     0.19800
H924        H  0.26192446  0.26598340  0.26310679     0.18600
H925        H  0.28528829  0.23967388  0.26549102     0.14800
H926        H  0.20174998  0.24660662  0.23244427     0.14700
H927        H  0.25239793  0.20220858  0.24145963     0.32900
H928        H  0.23440714  0.28434753  0.25619348     0.35600
C929        C  0.32031822  0.22583113  0.31872972     0.21200
C930        C  0.33476276  0.23079047  0.33071720    -0.38600
C931        C  0.33432274  0.23224405  0.35767969     0.20200
C932        C  0.32054473  0.22892698  0.37178471     0.22900
C933        C  0.30602863  0.22391779  0.35975444    -0.39100
C934        C  0.30643690  0.22254022  0.33260996     0.21700
N935        N  0.31835951  0.22172827  0.29382349    -0.32400
C936        C  0.30315983  0.21568574  0.29137398    -0.10000
C937        C  0.29525952  0.21614217  0.31526208    -0.28800
N938        N  0.32359262  0.23040359  0.39727448    -0.45400
C939        C  0.33943758  0.23468744  0.39941645    -0.04700
C940        C  0.34646784  0.23598055  0.37502355    -0.22000
H941        H  0.34575251  0.23280212  0.31986744     0.19800
H942        H  0.29538322  0.22075945  0.37078149     0.18600
H943        H  0.28370195  0.21072629  0.31991762     0.14800
H944        H  0.35890825  0.23889752  0.37054469     0.14700
H945        H  0.32738618  0.22157703  0.27975409     0.32900
H946        H  0.31544690  0.22835104  0.41229189     0.35600
C947        C  0.26533785  0.16891222  0.19105132     0.21200
C948        C  0.26017599  0.15421475  0.17991339    -0.38600
C949        C  0.25775276  0.15431813  0.15312167     0.20200
C950        C  0.26033519  0.16803045  0.13842235     0.22900
C951        C  0.26551676  0.18280096  0.14959269    -0.39100
C952        C  0.26787142  0.18272542  0.17654347     0.21700
N953        N  0.27020880  0.17126729  0.21550614    -0.32400
C954        C  0.27591758  0.18667639  0.21698245    -0.10000
C955        C  0.27455170  0.19428886  0.19298575    -0.28800
N956        N  0.25813856  0.16464045  0.11318491    -0.45400
C957        C  0.25418065  0.14863218  0.11175415    -0.04700
C958        C  0.25375088  0.14184692  0.13638924    -0.22000
H959        H  0.25874013  0.14329283  0.19119938     0.19800
H960        H  0.26809644  0.19339429  0.13803024     0.18600
H961        H  0.27939310  0.20600676  0.18764111     0.14800
H962        H  0.25133093  0.12934491  0.14136928     0.14700
H963        H  0.27089330  0.16245458  0.22987520     0.32900
H964        H  0.25966355  0.17265503  0.09782886     0.35600
C965        C  0.23443490  0.97736423  0.01020736     0.21200
C966        C  0.23508633  0.99113045  0.02641862    -0.38600
C967        C  0.23514398  0.00633534  0.01404610     0.20200
C968        C  0.23454166  0.00771634  0.98751667     0.22900
C969        C  0.23383754  0.99394500  0.97130161    -0.39100
C970        C  0.23384914  0.97873108  0.98367476     0.21700
N971        N  0.23479395  0.96161941  0.01723031    -0.32400
C972        C  0.23452481  0.95273634  0.99508599    -0.10000
C973        C  0.23386374  0.96307248  0.97371599    -0.28800
N974        N  0.23520317  0.02345657  0.98046323    -0.45400
C975        C  0.23628448  0.03230036  0.00259248    -0.04700
C976        C  0.23621607  0.02195671  0.02397256    -0.22000
H977        H  0.23575164  0.99007206  0.04717917     0.19800
H978        H  0.23356038  0.99499654  0.95051832     0.18600
H979        H  0.23371703  0.95962232  0.95357603     0.14800
H980        H  0.23711642  0.02537036  0.04407950     0.14700
H981        H  0.23548190  0.95720440  0.03604570     0.32900
H982        H  0.23513643  0.02788960  0.96162915     0.35600
C983        C  0.25764735  0.74812656  0.25520172     0.21200
C984        C  0.25420429  0.73200049  0.26203260    -0.38600
C985        C  0.23798650  0.72717194  0.25947671     0.20200
C986        C  0.22613345  0.73764000  0.25083226     0.22900
C987        C  0.22957062  0.75375555  0.24407140    -0.39100
C988        C  0.24577254  0.75856885  0.24656527     0.21700
N989        N  0.27215047  0.75552218  0.25529463    -0.32400
C990        C  0.26947991  0.77081670  0.24668336    -0.10000
C991        C  0.25314130  0.77317661  0.24108793    -0.28800
N992        N  0.21166787  0.73020916  0.25019493    -0.45400
C993        C  0.21429605  0.71484178  0.25842587    -0.04700
C994        C  0.23059840  0.71247361  0.26441213    -0.22000
H995        H  0.26347924  0.72380459  0.26874749     0.19800
H996        H  0.22031674  0.76191802  0.23718594     0.18600
H997        H  0.24735783  0.78402619  0.23401325     0.14800
H998        H  0.23635395  0.70154122  0.27122628     0.14700
H999        H  0.28317686  0.75022373  0.26005815     0.32900
H1000       H  0.20068544  0.73550013  0.24516616     0.35600
C1001       C  0.31997474  0.76415850  0.30464807     0.21200
C1002       C  0.33460061  0.75967334  0.31644374    -0.38600
C1003       C  0.33395673  0.75687961  0.34311722     0.20200
C1004       C  0.31980844  0.75849548  0.35704635     0.22900
C1005       C  0.30512433  0.76295833  0.34520457    -0.39100
C1006       C  0.30574382  0.76569495  0.31840453     0.21700
N1007       N  0.31789268  0.76898780  0.28015819    -0.32400
C1008       C  0.30224792  0.77369694  0.27795031    -0.10000
C1009       C  0.29419972  0.77168099  0.30146948    -0.28800
N1010       N  0.32256587  0.75584022  0.38230715    -0.45400
C1011       C  0.33858116  0.75245827  0.38454349    -0.04700
C1012       C  0.34606313  0.75298319  0.36040341    -0.22000
H1013       H  0.34579287  0.75888785  0.30572603     0.19800
H1014       H  0.29413475  0.76464105  0.35618338     0.18600
H1015       H  0.28204473  0.77549442  0.30615685     0.14800
H1016       H  0.35871247  0.75106984  0.35610582     0.14700
H1017       H  0.32689567  0.77006428  0.26615652     0.32900
H1018       H  0.31406636  0.75644658  0.39714972     0.35600
C1019       C  0.25867745  0.81664915  0.18011247     0.21200
C1020       C  0.25356507  0.83124660  0.16873556    -0.38600
C1021       C  0.25133128  0.83094318  0.14186077     0.20200
C1022       C  0.25396975  0.81711386  0.12735626     0.22900
C1023       C  0.25905697  0.80247030  0.13875580    -0.39100
C1024       C  0.26130162  0.80276603  0.16571503     0.21700
N1025       N  0.26394589  0.81462718  0.20443870    -0.32400
C1026       C  0.27010394  0.79941017  0.20587716    -0.10000
C1027       C  0.26847873  0.79156205  0.18203317    -0.28800
N1028       N  0.25222333  0.82031791  0.10200754    -0.45400
C1029       C  0.24852573  0.83633648  0.10022506    -0.04700
C1030       C  0.24777713  0.84332164  0.12481129    -0.22000
H1031       H  0.25222832  0.84228736  0.17985796     0.19800
H1032       H  0.26185533  0.79185457  0.12729854     0.18600
H1033       H  0.27377932  0.78009086  0.17647337     0.14800
H1034       H  0.24552619  0.85589935  0.12956123     0.14700
H1035       H  0.26493121  0.82367628  0.21848455     0.32900
H1036       H  0.25397186  0.81218727  0.08679616     0.35600
C1037       C  0.24729020  0.75769593  0.75226450     0.21200
C1038       C  0.23116945  0.75470391  0.75941488    -0.38600
C1039       C  0.22618821  0.73840761  0.75870356     0.20200
C1040       C  0.23648977  0.72603293  0.75135973     0.22900
C1041       C  0.25262099  0.72902598  0.74420838    -0.39100
C1042       C  0.25760400  0.74533230  0.74491155     0.21700
N1043       N  0.25497401  0.77208919  0.75184585    -0.32400
C1044       C  0.27034697  0.76888419  0.74430743    -0.10000
C1045       C  0.27243623  0.75232193  0.73960636    -0.28800
N1046       N  0.22873723  0.71166296  0.75155677    -0.45400
C1047       C  0.21333757  0.71491972  0.75894500    -0.04700
C1048       C  0.21131022  0.73147164  0.76376204    -0.22000
H1049       H  0.22308880  0.76437019  0.76510863     0.19800
H1050       H  0.26068323  0.71936697  0.73841805     0.18600
H1051       H  0.28340842  0.74613659  0.73402716     0.14800
H1052       H  0.20031979  0.73770288  0.76911733     0.14700
H1053       H  0.24999353  0.78334161  0.75641353     0.32900
H1054       H  0.23367432  0.70042540  0.74684531     0.35600
C1055       C  0.31743283  0.75923410  0.67912078     0.21200
C1056       C  0.33180001  0.75421422  0.66709666    -0.38600
C1057       C  0.33124431  0.75263092  0.64017320     0.20200
C1058       C  0.31742949  0.75584955  0.62612248     0.22900
C1059       C  0.30299707  0.76093420  0.63818395    -0.39100
C1060       C  0.30352470  0.76246261  0.66529216     0.21700
N1061       N  0.31562005  0.76356416  0.70394716    -0.32400
C1062       C  0.30049536  0.76970572  0.70636541    -0.10000
C1063       C  0.29249145  0.76906179  0.68257671    -0.28800
N1064       N  0.32040127  0.75433700  0.60062955    -0.45400
C1065       C  0.33624651  0.75018165  0.59846893    -0.04700
C1066       C  0.34334095  0.74896147  0.62281206    -0.22000
H1067       H  0.34283297  0.75230692  0.67786861     0.19800
H1068       H  0.29234503  0.76408174  0.62719544     0.18600
H1069       H  0.28099401  0.77453409  0.67788320     0.14800
H1070       H  0.35580752  0.74619305  0.62724889     0.14700
H1071       H  0.32471568  0.76384650  0.71791110     0.32900
H1072       H  0.31224702  0.75639075  0.58563003     0.35600
C1073       C  0.26376205  0.81793691  0.80596689     0.21200
C1074       C  0.25932717  0.83264032  0.81779033    -0.38600
C1075       C  0.25587372  0.83193818  0.84428193     0.20200
C1076       C  0.25685310  0.81767187  0.85809369     0.22900
C1077       C  0.26129450  0.80289106  0.84620753    -0.39100
C1078       C  0.26465595  0.80356475  0.81954061     0.21700
N1079       N  0.26921162  0.81589757  0.78176141    -0.32400
C1080       C  0.27364735  0.80012608  0.77950497    -0.10000
C1081       C  0.27086297  0.79196867  0.80272977    -0.28800
N1082       N  0.25390166  0.82048462  0.88334051    -0.45400
C1083       C  0.25103844  0.83667581  0.88567334    -0.04700
C1084       C  0.25209621  0.84415335  0.86157786    -0.22000
H1085       H  0.25911619  0.84394747  0.80726700     0.19800
H1086       H  0.26256113  0.79179545  0.85708946     0.18600
H1087       H  0.27441677  0.77971408  0.80744414     0.14800
H1088       H  0.25078658  0.85691986  0.85734987     0.14700
H1089       H  0.27097398  0.82500992  0.76810500     0.32900
H1090       H  0.25419103  0.81195136  0.89815943     0.35600
C1091       C  0.50556750  0.73011723  0.50570740     0.21200
C1092       C  0.49147068  0.72851939  0.52070546    -0.38600
C1093       C  0.47674164  0.72852957  0.50711726     0.20200
C1094       C  0.47611046  0.72991037  0.48057495     0.22900
C1095       C  0.49020840  0.73148507  0.46556574    -0.39100
C1096       C  0.50493615  0.73156798  0.47917480     0.21700
N1097       N  0.52095498  0.73114264  0.51412777    -0.32400
C1098       C  0.53028456  0.73335052  0.49287548    -0.10000
C1099       C  0.52066801  0.73359970  0.47066847    -0.28800
N1100       N  0.46065559  0.73027908  0.47237780    -0.45400
C1101       C  0.45128744  0.72928485  0.49382344    -0.04700
C1102       C  0.46094562  0.72807898  0.51587600    -0.22000
H1103       H  0.49192106  0.72768971  0.54150823     0.19800
H1104       H  0.48972684  0.73288921  0.44484444     0.18600
H1105       H  0.52459773  0.73539923  0.45099082     0.14800
H1106       H  0.45696927  0.72742368  0.53571403     0.14700
H1107       H  0.52482261  0.73069123  0.53327846     0.32900
H1108       H  0.45674324  0.73164359  0.45336393     0.35600
C1109       C  0.72684817  0.74889416  0.25166328     0.21200
C1110       C  0.72945213  0.73218820  0.25479426    -0.38600
C1111       C  0.74547281  0.72693317  0.25169086     0.20200
C1112       C  0.75794341  0.73748981  0.24567131     0.22900
C1113       C  0.75532931  0.75418482  0.24242269    -0.39100
C1114       C  0.73932530  0.75945191  0.24568278     0.21700
N1115       N  0.71279525  0.75693981  0.25416329    -0.32400
C1116       C  0.71637745  0.77274160  0.24968896    -0.10000
C1117       C  0.73280034  0.77479224  0.24432290    -0.28800
N1118       N  0.77208753  0.72952502  0.24402255    -0.45400
C1119       C  0.76857893  0.71378635  0.24918187    -0.04700
C1120       C  0.75210272  0.71167924  0.25401014    -0.22000
H1121       H  0.71974805  0.72391238  0.25960694     0.19800
H1122       H  0.76506456  0.76248808  0.23788940     0.18600
H1123       H  0.73918137  0.78598270  0.24042953     0.14800
H1124       H  0.74578134  0.70052447  0.25836589     0.14700
H1125       H  0.70150791  0.75193072  0.25831075     0.32900
H1126       H  0.78339702  0.73456762  0.24018320     0.35600
C1127       C  0.66687183  0.76555388  0.31088437     0.21200
C1128       C  0.65182244  0.76176263  0.32196075    -0.38600
C1129       C  0.65180529  0.75897359  0.34864591     0.20200
C1130       C  0.66572943  0.75994628  0.36330671     0.22900
C1131       C  0.68084736  0.76371075  0.35218777    -0.39100
C1132       C  0.68088958  0.76644343  0.32535091     0.21700
N1133       N  0.66954653  0.77080906  0.28675932    -0.32400
C1134       C  0.68534716  0.77519800  0.28549171    -0.10000
C1135       C  0.69289881  0.77244582  0.30922878    -0.28800
N1136       N  0.66226365  0.75784211  0.38850055    -0.45400
C1137       C  0.64600572  0.75551747  0.38992122    -0.04700
C1138       C  0.63911581  0.75608042  0.36534616    -0.22000
H1139       H  0.64078406  0.76168409  0.31076059     0.19800
H1140       H  0.69165318  0.76509425  0.36375299     0.18600
H1141       H  0.70493088  0.77623067  0.31484218     0.14800
H1142       H  0.62645141  0.75502220  0.36039929     0.14700
H1143       H  0.66075440  0.77282229  0.27268300     0.32900
H1144       H  0.67043214  0.75832183  0.40383411     0.35600
C1145       C  0.72627710  0.82020814  0.18669435     0.21200
C1146       C  0.73127894  0.83439308  0.17397978    -0.38600
C1147       C  0.73251923  0.83334857  0.14702515     0.20200
C1148       C  0.72897049  0.81925335  0.13365174     0.22900
C1149       C  0.72405718  0.80499328  0.14641141    -0.39100
C1150       C  0.72290267  0.80599945  0.17348158     0.21700
N1151       N  0.72202144  0.81885297  0.21160716    -0.32400
C1152       C  0.71583555  0.80371739  0.21456875    -0.10000
C1153       C  0.71641282  0.79522868  0.19120052    -0.28800
N1154       N  0.72996733  0.82177551  0.10801247    -0.45400
C1155       C  0.73420443  0.83759555  0.10499929    -0.04700
C1156       C  0.73597310  0.84515288  0.12899567    -0.22000
H1157       H  0.73334540  0.84565524  0.18424851     0.19800
H1158       H  0.72068397  0.79412811  0.13594295     0.18600
H1159       H  0.71095202  0.78357322  0.18703647     0.14800
H1160       H  0.73886989  0.85773978  0.13277498     0.14700
H1161       H  0.72187881  0.82819588  0.22524667     0.32900
H1162       H  0.72755099  0.81332897  0.09346421     0.35600
C1163       C  0.73771703  0.75764453  0.75179944     0.21200
C1164       C  0.75407190  0.75422494  0.75684195    -0.38600
C1165       C  0.75880396  0.73797718  0.75359707     0.20200
C1166       C  0.74805214  0.72603603  0.74586454     0.22900
C1167       C  0.73168249  0.72945147  0.74085980    -0.39100
C1168       C  0.72695110  0.74571424  0.74407477     0.21700
N1169       N  0.73030284  0.77213665  0.75338066    -0.32400
C1170       C  0.71465763  0.76946462  0.74657512    -0.10000
C1171       C  0.71210147  0.75309585  0.74063218    -0.28800
N1172       N  0.75551114  0.71156335  0.74418882    -0.45400
C1173       C  0.77115442  0.71428704  0.75096137    -0.04700
C1174       C  0.77366878  0.73064538  0.75696168    -0.22000
H1175       H  0.76250448  0.76354595  0.76287836     0.19800
H1176       H  0.72325317  0.72013069  0.73481190     0.18600
H1177       H  0.70091802  0.74729926  0.73490933     0.14800
H1178       H  0.78483428  0.73647145  0.76269701     0.14700
H1179       H  0.73571473  0.78314915  0.75826985     0.32900
H1180       H  0.75014703  0.70052951  0.73927717     0.35600
C1181       C  0.66519259  0.76222560  0.68354461     0.21200
C1182       C  0.65025555  0.75835363  0.67199504    -0.38600
C1183       C  0.65031334  0.75654791  0.64502912     0.20200
C1184       C  0.66419340  0.75858109  0.63057575     0.22900
C1185       C  0.67916157  0.76254055  0.64214701    -0.39100
C1186       C  0.67913996  0.76422294  0.66924169     0.21700
N1187       N  0.66777384  0.76642543  0.70829141    -0.32400
C1188       C  0.68344400  0.77127050  0.71017129    -0.10000
C1189       C  0.69098451  0.76988587  0.68608787    -0.28800
N1190       N  0.66087357  0.75695071  0.60520379    -0.45400
C1191       C  0.64475022  0.75382495  0.60338631    -0.04700
C1192       C  0.63779303  0.75346762  0.62795048    -0.22000
H1193       H  0.63925075  0.75734624  0.68315299     0.19800
H1194       H  0.68992254  0.76468767  0.63079865     0.18600
H1195       H  0.70284363  0.77437453  0.68091234     0.14800
H1196       H  0.62520146  0.75154016  0.63268789     0.14700
H1197       H  0.65893160  0.76754119  0.72254840     0.32900
H1198       H  0.66907787  0.75810226  0.59002593     0.35600
C1199       C  0.72081442  0.80460272  0.82086128     0.21200
C1200       C  0.72234212  0.80298463  0.84780138    -0.38600
C1201       C  0.72615492  0.81724856  0.86159638     0.20200
C1202       C  0.72830420  0.83200995  0.84948357     0.22900
C1203       C  0.72677764  0.83364522  0.82263821    -0.39100
C1204       C  0.72296791  0.81941263  0.80888703     0.21700
N1205       N  0.71506879  0.79348056  0.80396051    -0.32400
C1206       C  0.71332180  0.80130028  0.78111925    -0.10000
C1207       C  0.71834415  0.81744218  0.78354419    -0.28800
N1208       N  0.73077269  0.84392135  0.86690423    -0.45400
C1209       C  0.73013180  0.83677571  0.89042700    -0.04700
C1210       C  0.72733937  0.82010507  0.88784226    -0.22000
H1211       H  0.72000078  0.79160718  0.85745374     0.19800
H1212       H  0.72772691  0.84531157  0.81325512     0.18600
H1213       H  0.71691421  0.82696816  0.76942659     0.14800
H1214       H  0.72590451  0.81132011  0.90311896     0.14700
H1215       H  0.71086280  0.78187153  0.80839090     0.32900
H1216       H  0.73235438  0.85622352  0.86300352     0.35600
C1217       C  0.75599194  0.00584521  0.98824209     0.21200
C1218       C  0.75645964  0.99194183  0.97240662    -0.38600
C1219       C  0.75625366  0.97692566  0.98524190     0.20200
C1220       C  0.75576953  0.97585919  0.01183352     0.22900
C1221       C  0.75536340  0.98975357  0.02765294    -0.39100
C1222       C  0.75544191  0.00475724  0.01482391     0.21700
N1223       N  0.75517348  0.02145812  0.98074169    -0.32400
C1224       C  0.75399803  0.03045138  0.00266313    -0.10000
C1225       C  0.75421918  0.02040257  0.02432972    -0.28800
N1226       N  0.75478712  0.96025795  0.01930471    -0.45400
C1227       C  0.75445777  0.95123019  0.99736618    -0.04700
C1228       C  0.75548058  0.96124396  0.97569936    -0.22000
H1229       H  0.75651405  0.99275226  0.95158849     0.19800
H1230       H  0.75459142  0.98893482  0.04843313     0.18600
H1231       H  0.75315651  0.02400273  0.04433100     0.14800
H1232       H  0.75514658  0.95759683  0.95565071     0.14700
H1233       H  0.75501460  0.02568467  0.96178826     0.32900
H1234       H  0.75380516  0.95606406  0.03822233     0.35600
C1235       C  0.50825820  0.25331569  0.51618940     0.21200
C1236       C  0.49425716  0.25294584  0.53156577    -0.38600
C1237       C  0.47948275  0.25493346  0.51857251     0.20200
C1238       C  0.47866370  0.25713374  0.49219744     0.22900
C1239       C  0.49272360  0.25762904  0.47677468    -0.39100
C1240       C  0.50755795  0.25559443  0.48981690     0.21700
N1241       N  0.52360984  0.25095248  0.52391466    -0.32400
C1242       C  0.53294380  0.25162743  0.50241509    -0.10000
C1243       C  0.52331575  0.25462097  0.48070412    -0.28800
N1244       N  0.46309862  0.25791872  0.48442725    -0.45400
C1245       C  0.45390505  0.25620046  0.50600491    -0.04700
C1246       C  0.46378165  0.25441578  0.52767934    -0.22000
H1247       H  0.49480801  0.25089528  0.55214137     0.19800
H1248       H  0.49213481  0.25911547  0.45607650     0.18600
H1249       H  0.52724320  0.25554644  0.46086924     0.14800
H1250       H  0.45999712  0.25247239  0.54739236     0.14700
H1251       H  0.52743708  0.24865056  0.54273818     0.32900
H1252       H  0.45899173  0.25922859  0.46550852     0.35600
C1253       C  0.72643889  0.23625469  0.74916271     0.21200
C1254       C  0.72945828  0.25272011  0.74417514    -0.38600
C1255       C  0.74559636  0.25780737  0.74661919     0.20200
C1256       C  0.75782833  0.24731511  0.75370837     0.22900
C1257       C  0.75480521  0.23081708  0.75880348    -0.39100
C1258       C  0.73863368  0.22570565  0.75622360     0.21700
N1259       N  0.71212450  0.22850880  0.74792482    -0.32400
C1260       C  0.71516220  0.21286230  0.75424103    -0.10000
C1261       C  0.73159110  0.21062604  0.75958305    -0.28800
N1262       N  0.77214817  0.25512824  0.75440867    -0.45400
C1263       C  0.76898572  0.27070394  0.74761044    -0.04700
C1264       C  0.75254026  0.27283327  0.74264588    -0.22000
H1265       H  0.71993472  0.26095775  0.73857315     0.19800
H1266       H  0.76434565  0.22255866  0.76426761     0.18600
H1267       H  0.73763808  0.19951877  0.76489653     0.14800
H1268       H  0.74641721  0.28385517  0.73712203     0.14700
H1269       H  0.70097229  0.23369529  0.74359055     0.32900
H1270       H  0.78336146  0.25003771  0.75865390     0.35600
C1271       C  0.66495842  0.21942324  0.69413127     0.21200
C1272       C  0.65012858  0.22322487  0.68227545    -0.38600
C1273       C  0.65047214  0.22511798  0.65534440     0.20200
C1274       C  0.66453566  0.22331013  0.64126565     0.22900
C1275       C  0.67940267  0.21956342  0.65315854    -0.39100
C1276       C  0.67908751  0.21773243  0.68016915     0.21700
N1277       N  0.66729300  0.21499334  0.71878553    -0.32400
C1278       C  0.68298816  0.21036737  0.72086674    -0.10000
C1279       C  0.69080774  0.21211542  0.69711682    -0.28800
N1280       N  0.66147922  0.22472111  0.61582288    -0.45400
C1281       C  0.64533917  0.22744809  0.61353809    -0.04700
C1282       C  0.63809430  0.22783687  0.63790236    -0.22000
H1283       H  0.63898795  0.22399244  0.69313371     0.19800
H1284       H  0.69029346  0.21757230  0.64206215     0.18600
H1285       H  0.70282451  0.20799372  0.69219333     0.14800
H1286       H  0.62541264  0.22945786  0.64226271     0.14700
H1287       H  0.65834742  0.21376925  0.73285512     0.32900
H1288       H  0.66985696  0.22357140  0.60088619     0.35600
C1289       C  0.72262435  0.17929271  0.83092613     0.21200
C1290       C  0.72417598  0.18047744  0.85792839    -0.38600
C1291       C  0.72971264  0.16647725  0.87065696     0.20200
C1292       C  0.73339881  0.15234642  0.85751287     0.22900
C1293       C  0.73184510  0.15115549  0.83058209    -0.39100
C1294       C  0.72633172  0.16513281  0.81787353     0.21700
N1295       N  0.71554410  0.19002840  0.81490870    -0.32400
C1296       C  0.71456522  0.18262818  0.79152038    -0.10000
C1297       C  0.72129596  0.16712399  0.79272799    -0.28800
N1298       N  0.73710310  0.14035859  0.87409973    -0.45400
C1299       C  0.73570224  0.14681409  0.89810701    -0.04700
C1300       C  0.73123775  0.16314778  0.89666699    -0.22000
H1301       H  0.72059191  0.19125303  0.86840198     0.19800
H1302       H  0.73399224  0.13989581  0.82038675     0.18600
H1303       H  0.72080028  0.15784129  0.77794841     0.14800
H1304       H  0.72873407  0.17131121  0.91253051     0.14700
H1305       H  0.71009636  0.20094768  0.82020887     0.32900
H1306       H  0.73984355  0.12837585  0.86936291     0.35600
C1307       C  0.74895916  0.25632943  0.25392299     0.21200
C1308       C  0.73252348  0.25318175  0.25872896    -0.38600
C1309       C  0.72758525  0.23693328  0.25617467     0.20200
C1310       C  0.73820891  0.22472612  0.24930253     0.22900
C1311       C  0.75466282  0.22786889  0.24453852    -0.39100
C1312       C  0.75959891  0.24413660  0.24704362     0.21700
N1313       N  0.75655783  0.27078198  0.25478745    -0.32400
C1314       C  0.77216893  0.26780029  0.24833580    -0.10000
C1315       C  0.77454301  0.25130218  0.24335849    -0.28800
N1316       N  0.73049061  0.21034356  0.24782726    -0.45400
C1317       C  0.71482450  0.21342810  0.25385270    -0.04700
C1318       C  0.71254927  0.22988256  0.25921800    -0.22000
H1319       H  0.72416634  0.26270891  0.26397517     0.19800
H1320       H  0.76298694  0.21836339  0.23906297     0.18600
H1321       H  0.78565518  0.24531125  0.23796178     0.14800
H1322       H  0.70140337  0.23595843  0.26417529     0.14700
H1323       H  0.75131252  0.28198619  0.25890508     0.32900
H1324       H  0.73564477  0.19916231  0.24335822     0.35600
C1325       C  0.68143492  0.22059895  0.33022697     0.21200
C1326       C  0.68315803  0.22223663  0.35720883    -0.38600
C1327       C  0.66918222  0.22693575  0.37094149     0.20200
C1328       C  0.65464589  0.22983461  0.35865803     0.22900
C1329       C  0.65291190  0.22815926  0.33183378    -0.39100
C1330       C  0.66680750  0.22344323  0.31818632     0.21700
N1331       N  0.69212930  0.21414650  0.31336619    -0.32400
C1332       C  0.68419113  0.21265599  0.29051551    -0.10000
C1333       C  0.66842070  0.21850253  0.29290346    -0.28800
N1334       N  0.64290498  0.23305160  0.37590422    -0.45400
C1335       C  0.64983389  0.23210970  0.39957453    -0.04700
C1336       C  0.66629727  0.22838495  0.39722078    -0.22000
H1337       H  0.69434874  0.21933027  0.36693220     0.19800
H1338       H  0.64134848  0.22966068  0.32239250     0.18600
H1339       H  0.65882121  0.21746001  0.27880783     0.14800
H1340       H  0.67487557  0.22646036  0.41264978     0.14700
H1341       H  0.70346324  0.20938225  0.31782653     0.32900
H1342       H  0.63076161  0.23520721  0.37177687     0.35600
C1343       C  0.71967388  0.17823363  0.17904961     0.21200
C1344       C  0.72157443  0.17969237  0.15210029    -0.38600
C1345       C  0.72571789  0.16536795  0.13866500     0.20200
C1346       C  0.72774947  0.15071896  0.15113342     0.22900
C1347       C  0.72581241  0.14925347  0.17793388    -0.39100
C1348       C  0.72175024  0.16352582  0.19131466     0.21700
N1349       N  0.71395311  0.18947173  0.19576689    -0.32400
C1350       C  0.71223803  0.18182350  0.21879824    -0.10000
C1351       C  0.71712118  0.16566306  0.21661426    -0.28800
N1352       N  0.73080270  0.13873189  0.13410008    -0.45400
C1353       C  0.73071602  0.14567237  0.11041013    -0.04700
C1354       C  0.72762847  0.16233150  0.11253085    -0.22000
H1355       H  0.71942432  0.19101105  0.14219599     0.19800
H1356       H  0.72680343  0.13768250  0.18757931     0.18600
H1357       H  0.71577012  0.15626123  0.23096880     0.14800
H1358       H  0.72656126  0.17099902  0.09701649     0.14700
H1359       H  0.70990601  0.20109592  0.19118158     0.32900
H1360       H  0.73251666  0.12650503  0.13835208     0.35600
loop_ 
_geom_bond_atom_site_label_1 
_geom_bond_atom_site_label_2 
_geom_bond_distance 
_geom_bond_site_symmetry_2 
_ccdc_geom_bond_type 
N1            C5   1.368       .  A
N1            C2   1.368       .  A
N1         C1317   1.446       .  S
C2            C3   1.381       .  A
C2         C1332   1.489       .  S
C3            C4   1.370       .  A
C3            H6   1.082       .  S
C4            C5   1.381       .  A
C4            H7   1.082       .  S
C5         C1350   1.489       .  S
N8           C12   1.367       .  A
N8            C9   1.368       .  A
N8         C1260   1.447       .  S
C9           C10   1.381       .  A
C9         C1278   1.488       .  S
C10          C11   1.371       .  A
C10          H13   1.082       .  S
C11          C12   1.380       .  A
C11          H14   1.082       .  S
C12        C1296   1.485       .  S
N15          C19   1.352       .  A
N15          N16   1.324       .  A
N15         Cu23   2.105       .  S
N16          C17   1.350       .  A
N16         Cu22   2.101       .  S
C17          C18   1.388       .  A
C17          H20   1.081       .  S
C18          C19   1.391       .  A
C18        C1281   1.493       .  S
C19          H21   1.082       .  S
Cu22         N25   2.101       .  S
Cu23         N33   2.105       .  S
Cu24         N26   2.108       .  S
Cu24         N32   2.108       .  S
N25          C29   1.352       .  A
N25          N26   1.324       .  A
N26          C27   1.350       .  A
C27          C28   1.390       .  A
C27          H30   1.082       .  S
C28          C29   1.389       .  A
C28        C1335   1.493       .  S
C29          H31   1.082       .  S
N32          C36   1.353       .  A
N32          N33   1.325       .  A
N33          C34   1.349       .  A
C34          C35   1.389       .  A
C34          H37   1.081       .  S
C35          C36   1.391       .  A
C35        C1242   1.494       .  S
C36          H38   1.082       .  S
N39          C43   1.352       .  A
N39          N40   1.323       .  A
N39         Cu47   2.109       .  S
N40          C41   1.349       .  A
N40         Cu46   2.090       .  S
C41          C42   1.387       .  A
C41          H44   1.082       .  S
C42          C43   1.392       .  A
C42        C1353   1.492       .  S
C43          H45   1.082       .  S
Cu46         N49   2.089   1_554  S
Cu47         N57   2.108       .  S
Cu48         N50   2.102       .  S
Cu48         N56   2.102       .  S
N49          C53   1.347       .  A
N49          N50   1.323       .  A
N50          C51   1.352       .  A
C51          C52   1.391       .  A
C51          H54   1.082       .  S
C52          C53   1.386       .  A
C52        C1299   1.489       .  S
C53          H55   1.082       .  S
N56          C60   1.350       .  A
N56          N57   1.325   1_556  A
N57          C58   1.351       .  A
C58          C59   1.390       .  A
C58          H61   1.082       .  S
C59          C60   1.387   1_554  A
C59        C1224   1.490       .  S
C60          H62   1.082       .  S
N63          C67   1.371       .  A
N63          C64   1.369       .  A
N63        C1170   1.450       .  S
C64          C65   1.381       .  A
C64        C1206   1.487       .  S
C65          C66   1.368       .  A
C65          H68   1.083       .  S
C66          C67   1.380       .  A
C66          H69   1.082       .  S
C67        C1188   1.488       .  S
N70          C74   1.365       .  A
N70          C71   1.365       .  A
N70        C1116   1.444       .  S
C71          C72   1.380       .  A
C71        C1152   1.484       .  S
C72          C73   1.372       .  A
C72          H75   1.082       .  S
C73          C74   1.381       .  A
C73          H76   1.082       .  S
C74        C1134   1.485       .  S
N77          C81   1.350       .  A
N77          N78   1.323       .  A
N77         Cu85   2.099       .  S
N78          C79   1.350       .  A
N78         Cu84   2.096       .  S
C79          C80   1.388       .  A
C79          H82   1.082       .  S
C80          C81   1.390       .  A
C80        C1137   1.490       .  S
C81          H83   1.082       .  S
Cu84         N87   2.097       .  S
Cu85         N95   2.098       .  S
Cu86         N88   2.114       .  S
Cu86         N94   2.113       .  S
N87          C91   1.350       .  A
N87          N88   1.324       .  A
N88          C89   1.353       .  A
C89          C90   1.393       .  A
C89          H92   1.082       .  S
C90          C91   1.388       .  A
C90        C1191   1.495       .  S
C91          H93   1.082       .  S
N94          C98   1.352       .  A
N94          N95   1.325       .  A
N95          C96   1.350       .  A
C96          C97   1.388       .  A
C96          H99   1.082       .  S
C97          C98   1.390       .  A
C97        C1098   1.491       .  S
C98         H100   1.082       .  S
N101        C105   1.349       .  A
N101        N102   1.325       .  A
N101       Cu109   2.096       .  S
N102        C103   1.349       .  A
N102       Cu108   2.098       .  S
C103        C104   1.388       .  A
C103        H106   1.082       .  S
C104        C105   1.387       .  A
C104       C1209   1.488       .  S
C105        H107   1.082       .  S
Cu108       N111   2.098   1_556  S
Cu109       N119   2.095       .  S
Cu110       N112   2.098       .  S
Cu110       N118   2.097       .  S
N111        C115   1.351       .  A
N111        N112   1.324       .  A
N112        C113   1.348       .  A
C113        C114   1.388       .  A
C113        H116   1.082       .  S
C114        C115   1.389       .  A
C114       C1155   1.489       .  S
C115        H117   1.082       .  S
N118        C122   1.349       .  A
N118        N119   1.323   1_554  A
N119        C120   1.350       .  A
C120        C121   1.389       .  A
C120        H123   1.082       .  S
C121        C122   1.388   1_556  A
C121       C1227   1.489       .  S
C122        H124   1.082       .  S
N125        C129   1.367       .  A
N125        C126   1.367       .  A
N125       C1044   1.446       .  S
C126        C127   1.380       .  A
C126       C1062   1.486       .  S
C127        C128   1.371       .  A
C127        H130   1.083       .  S
C128        C129   1.380       .  A
C128        H131   1.082       .  S
C129       C1080   1.487       .  S
N132        C136   1.368       .  A
N132        C133   1.367       .  A
N132        C990   1.445       .  S
C133        C134   1.381       .  A
C133       C1008   1.488       .  S
C134        C135   1.372       .  A
C134        H137   1.082       .  S
C135        C136   1.379       .  A
C135        H138   1.082       .  S
C136       C1026   1.487       .  S
N139        C143   1.348       .  A
N139        N140   1.324       .  A
N139       Cu147   2.098       .  S
N140        C141   1.351       .  A
N140       Cu146   2.095       .  S
C141        C142   1.388       .  A
C141        H144   1.082       .  S
C142        C143   1.389       .  A
C142       C1065   1.489       .  S
C143        H145   1.082       .  S
Cu146       N149   2.095       .  S
Cu147       N157   2.098       .  S
Cu148       N150   2.102       .  S
Cu148       N156   2.101       .  S
N149        C153   1.349       .  A
N149        N150   1.324       .  A
N150        C151   1.351       .  A
C151        C152   1.390       .  A
C151        H154   1.082       .  S
C152        C153   1.387       .  A
C152       C1011   1.489       .  S
C153        H155   1.082       .  S
N156        C160   1.350       .  A
N156        N157   1.324       .  A
N157        C158   1.350       .  A
C158        C159   1.389       .  A
C158        H161   1.082       .  S
C159        C160   1.388       .  A
C159       C1101   1.489       .  S
C160        H162   1.082       .  S
N163        C167   1.352       .  A
N163        N164   1.325       .  A
N163       Cu171   2.119       .  S
N164        C165   1.353       .  A
N164       Cu170   2.104       .  S
C165        C166   1.389       .  A
C165        H168   1.082       .  S
C166        C167   1.392       .  A
C166       C1083   1.496       .  S
C167        H169   1.082       .  S
Cu170       N173   2.104   1_556  S
Cu171       N181   2.119       .  S
Cu172       N174   2.107       .  S
Cu172       N180   2.107       .  S
N173        C177   1.351       .  A
N173        N174   1.324       .  A
N174        C175   1.351       .  A
C175        C176   1.391       .  A
C175        H178   1.082       .  S
C176        C177   1.389       .  A
C176       C1029   1.494       .  S
C177        H179   1.082       .  S
N180        C184   1.351       .  A
N180        N181   1.325   1_554  A
N181        C182   1.354       .  A
C182        C183   1.394       .  A
C182        H185   1.082       .  S
C183        C184   1.390   1_556  A
C183        C972   1.499       .  S
C184        H186   1.082       .  S
N187        C191   1.367       .  A
N187        C188   1.367       .  A
N187        C918   1.445       .  S
C188        C189   1.379       .  A
C188        C954   1.486       .  S
C189        C190   1.371       .  A
C189        H192   1.082       .  S
C190        C191   1.381       .  A
C190        H193   1.082       .  S
C191        C936   1.487       .  S
N194        C198   1.367       .  A
N194        C195   1.368       .  A
N194        C864   1.446       .  S
C195        C196   1.381       .  A
C195        C900   1.489       .  S
C196        C197   1.372       .  A
C196        H199   1.082       .  S
C197        C198   1.381       .  A
C197        H200   1.082       .  S
C198        C882   1.488       .  S
N201        C205   1.352       .  A
N201        N202   1.325       .  A
N201       Cu209   2.117       .  S
N202        C203   1.349       .  A
N202       Cu208   2.092       .  S
C203        C204   1.386       .  A
C203        H206   1.082       .  S
C204        C205   1.392       .  A
C204        C957   1.492       .  S
C205        H207   1.082       .  S
Cu208       N211   2.092   1_554  S
Cu209       N219   2.117       .  S
Cu210       N212   2.113       .  S
Cu210       N218   2.113       .  S
N211        C215   1.349       .  A
N211        N212   1.323       .  A
N212        C213   1.353       .  A
C213        C214   1.392       .  A
C213        H216   1.082       .  S
C214        C215   1.388       .  A
C214        C903   1.494       .  S
C215        H217   1.082       .  S
N218        C222   1.352       .  A
N218        N219   1.325   1_556  A
N219        C220   1.354       .  A
C220        C221   1.393       .  A
C220        H223   1.082       .  S
C221        C222   1.390   1_554  A
C221        C975   1.499       .  S
C222        H224   1.082       .  S
N225        C229   1.350       .  A
N225        N226   1.323       .  A
N225       Cu233   2.105       .  S
N226        C227   1.351       .  A
N226       Cu232   2.094       .  S
C227        C228   1.388       .  A
C227        H230   1.082       .  S
C228        C229   1.391       .  A
C228        C939   1.492       .  S
C229        H231   1.082       .  S
Cu232       N235   2.094       .  S
Cu233       N243   2.104       .  S
Cu234       N236   2.111       .  S
Cu234       N242   2.111       .  S
N235        C239   1.350       .  A
N235        N236   1.324       .  A
N236        C237   1.351       .  A
C237        C238   1.392       .  A
C237        H240   1.082       .  S
C238        C239   1.386       .  A
C238        C885   1.492       .  S
C239        H241   1.082       .  S
N242        C246   1.351       .  A
N242        N243   1.325       .  A
N243        C244   1.352       .  A
C244        C245   1.389       .  A
C244        H247   1.082       .  S
C245        C246   1.391       .  A
C245       C1245   1.494       .  S
C246        H248   1.082       .  S
N249        C253   1.368       .  A
N249        C250   1.367       .  A
N249        C921   1.447       .  S
C250        C251   1.380       .  A
C250        C828   1.485       .  S
C251        C252   1.369       .  A
C251        H254   1.082       .  S
C252        C253   1.380       .  A
C252        H255   1.082       .  S
C253        C849   1.487       .  S
N256        C260   1.368       .  A
N256        C257   1.369       .  A
N256        C867   1.447       .  S
C257        C258   1.381       .  A
C257        C792   1.487       .  S
C258        C259   1.370       .  A
C258        H261   1.082       .  S
C259        C260   1.381       .  A
C259        H262   1.082       .  S
C260        C810   1.489       .  S
N263        C267   1.350       .  A
N263        N264   1.323       .  A
N263       Cu271   2.103       .  S
N264        C265   1.349       .  A
N264       Cu270   2.088   1_554  S
C265        C266   1.387       .  A
C265        H268   1.082       .  S
C266        C267   1.391       .  A
C266        C846   1.489       .  S
C267        H269   1.082       .  S
Cu270       N273   2.088       .  S
Cu271       N281   2.102       .  S
Cu272       N274   2.111       .  S
Cu272       N280   2.111       .  S
N273        C277   1.349       .  A
N273        N274   1.324       .  A
N274        C275   1.352       .  A
C275        C276   1.392       .  A
C275        H278   1.082       .  S
C276        C277   1.386       .  A
C276        C813   1.491       .  S
C277        H279   1.082       .  S
N280        C284   1.352       .  A
N280        N281   1.325   1_556  A
N281        C282   1.349       .  A
C282        C283   1.388   1_554  A
C282        H285   1.082       .  S
C283        C284   1.390       .  A
C283        C777   1.493       .  S
C284        H286   1.082       .  S
N287        C291   1.352       .  A
N287        N288   1.326       .  A
N287       Cu295   2.115       .  S
N288        C289   1.349       .  A
N288       Cu294   2.095       .  S
C289        C290   1.386       .  A
C289        H292   1.082       .  S
C290        C291   1.391       .  A
C290        C831   1.490       .  S
C291        H293   1.082       .  S
Cu294       N297   2.095       .  S
Cu295       N305   2.116       .  S
Cu296       N298   2.102       .  S
Cu296       N304   2.102       .  S
N297        C301   1.350       .  A
N297        N298   1.323       .  A
N298        C299   1.351       .  A
C299        C300   1.390       .  A
C299        H302   1.082       .  S
C300        C301   1.389       .  A
C300        C795   1.491       .  S
C301        H303   1.082       .  S
N304        C308   1.349       .  A
N304        N305   1.324       .  A
N305        C306   1.355       .  A
C306        C307   1.394       .  A
C306        H309   1.082       .  S
C307        C308   1.388       .  A
C307        C756   1.498       .  S
C308        H310   1.081       .  S
N311        C315   1.368       .  A
N311        C312   1.368       .  A
N311       C1314   1.447       .  S
C312        C313   1.380       .  A
C312        C738   1.486       .  S
C313        C314   1.370       .  A
C313        H316   1.082       .  S
C314        C315   1.381       .  A
C314        H317   1.082       .  S
C315        C720   1.488       .  S
N318        C322   1.367       .  A
N318        C319   1.366       .  A
N318       C1263   1.447       .  S
C319        C320   1.380       .  A
C319        C702   1.482       .  S
C320        C321   1.370       .  A
C320        H323   1.082       .  S
C321        C322   1.381       .  A
C321        H324   1.082       .  S
C322        C684   1.485       .  S
N325        C329   1.352       .  A
N325        N326   1.324       .  A
N325       Cu333   2.109       .  S
N326        C327   1.350       .  A
N326       Cu332   2.096       .  S
C327        C328   1.388       .  A
C327        H330   1.082       .  S
C328        C329   1.392       .  A
C328        C723   1.493       .  S
C329        H331   1.082       .  S
Cu332       N335   2.096       .  S
Cu333       N343   2.109       .  S
Cu334       N336   2.108       .  S
Cu334       N342   2.108       .  S
N335        C339   1.350       .  A
N335        N336   1.324       .  A
N336        C337   1.351       .  A
C337        C338   1.390       .  A
C337        H340   1.082       .  S
C338        C339   1.388       .  A
C338        C687   1.491       .  S
C339        H341   1.082       .  S
N342        C346   1.352       .  A
N342        N343   1.325       .  A
N343        C344   1.350       .  A
C344        C345   1.389       .  A
C344        H347   1.082       .  S
C345        C346   1.390       .  A
C345        C666   1.494       .  S
C346        H348   1.082       .  S
N349        C353   1.349       .  A
N349        N350   1.324       .  A
N349       Cu357   2.095       .  S
N350        C351   1.350       .  A
N350       Cu356   2.102       .  S
C351        C352   1.388       .  A
C351        H354   1.082       .  S
C352        C353   1.388       .  A
C352        C705   1.488       .  S
C353        H355   1.082       .  S
Cu356       N359   2.103   1_556  S
Cu357       N367   2.096       .  S
Cu358       N360   2.104       .  S
Cu358       N366   2.104       .  S
N359        C363   1.351       .  A
N359        N360   1.325       .  A
N360        C361   1.350       .  A
C361        C362   1.389       .  A
C361        H364   1.082       .  S
C362        C363   1.389       .  A
C362        C741   1.492       .  S
C363        H365   1.082       .  S
N366        C370   1.351       .  A
N366        N367   1.324   1_554  A
N367        C368   1.349       .  A
C368        C369   1.388       .  A
C368        H371   1.082       .  S
C369        C370   1.390   1_556  A
C369        C774   1.491       .  S
C370        H372   1.082       .  S
N373        C377   1.367       .  A
N373        C374   1.367       .  A
N373        C993   1.445       .  S
C374        C375   1.381       .  A
C374        C648   1.489       .  S
C375        C376   1.372       .  A
C375        H378   1.082       .  S
C376        C377   1.379       .  A
C376        H379   1.082       .  S
C377        C630   1.485       .  S
N380        C384   1.368       .  A
N380        C381   1.368       .  A
N380       C1047   1.446       .  S
C381        C382   1.380       .  A
C381        C615   1.487       .  S
C382        C383   1.370       .  A
C382        H385   1.082       .  S
C383        C384   1.382       .  A
C383        H386   1.082       .  S
C384        C594   1.489       .  S
N387        C391   1.353       .  A
N387        N388   1.326       .  A
N387       Cu395   2.127       .  S
N388        C389   1.351       .  A
N388       Cu394   2.097       .  S
C389        C390   1.387       .  A
C389        H392   1.082       .  S
C390        C391   1.393       .  A
C390        C597   1.495       .  S
C391        H393   1.082       .  S
Cu394       N397   2.097       .  S
Cu395       N405   2.127       .  S
Cu396       N398   2.100       .  S
Cu396       N404   2.100       .  S
N397        C401   1.351       .  A
N397        N398   1.324       .  A
N398        C399   1.349       .  A
C399        C400   1.389       .  A
C399        H402   1.082       .  S
C400        C401   1.388       .  A
C400        C633   1.490       .  S
C401        H403   1.082       .  S
N404        C408   1.350       .  A
N404        N405   1.325       .  A
N405        C406   1.356       .  A
C406        C407   1.395       .  A
C406        H409   1.082       .  S
C407        C408   1.388       .  A
C407        C759   1.500       .  S
C408        H410   1.082       .  S
N411        C415   1.349       .  A
N411        N412   1.324       .  A
N411       Cu419   2.099       .  S
N412        C413   1.351       .  A
N412       Cu418   2.098   1_556  S
C413        C414   1.388       .  A
C413        H416   1.082       .  S
C414        C415   1.390       .  A
C414        C612   1.491       .  S
C415        H417   1.082       .  S
Cu418       N421   2.098       .  S
Cu419       N429   2.098       .  S
Cu420       N422   2.111       .  S
Cu420       N428   2.110       .  S
N421        C425   1.351       .  A
N421        N422   1.325       .  A
N422        C423   1.351       .  A
C423        C424   1.391       .  A
C423        H426   1.082       .  S
C424        C425   1.388       .  A
C424        C651   1.492       .  S
C425        H427   1.082       .  S
N428        C432   1.353       .  A
N428        N429   1.324   1_554  A
N429        C430   1.349       .  A
C430        C431   1.388   1_556  A
C430        H433   1.082       .  S
C431        C432   1.391       .  A
C431        C576   1.492       .  S
C432        H434   1.082       .  S
N435        C439   1.369       .  A
N435        C436   1.368       .  A
N435       C1173   1.449       .  S
C436        C437   1.381       .  A
C436        C540   1.487       .  S
C437        C438   1.369       .  A
C437        H440   1.082       .  S
C438        C439   1.380       .  A
C438        H441   1.083       .  S
C439        C558   1.486       .  S
N442        C446   1.364       .  A
N442        C443   1.365       .  A
N442       C1119   1.443       .  S
C443        C444   1.380       .  A
C443        C504   1.484       .  S
C444        C445   1.372       .  A
C444        H447   1.082       .  S
C445        C446   1.381       .  A
C445        H448   1.082       .  S
C446        C522   1.483       .  S
N449        C453   1.351       .  A
N449        N450   1.324       .  A
N449       Cu457   2.108       .  S
N450        C451   1.349       .  A
N450       Cu456   2.092       .  S
C451        C452   1.387       .  A
C451        H454   1.082       .  S
C452        C453   1.390       .  A
C452        C543   1.490       .  S
C453        H455   1.082       .  S
Cu456       N459   2.092       .  S
Cu457       N467   2.108       .  S
Cu458       N460   2.100       .  S
Cu458       N466   2.100       .  S
N459        C463   1.350       .  A
N459        N460   1.324       .  A
N460        C461   1.349       .  A
C461        C462   1.389       .  A
C461        H464   1.082       .  S
C462        C463   1.387       .  A
C462        C507   1.488       .  S
C463        H465   1.082       .  S
N466        C470   1.351       .  A
N466        N467   1.324       .  A
N467        C468   1.351       .  A
C468        C469   1.390       .  A
C468        H471   1.082       .  S
C469        C470   1.389       .  A
C469        C669   1.493       .  S
C470        H472   1.082       .  S
N473        C477   1.351       .  A
N473        N474   1.323       .  A
N473       Cu481   2.100       .  S
N474        C475   1.348       .  A
N474       Cu480   2.089       .  S
C475        C476   1.387       .  A
C475        H478   1.082       .  S
C476        C477   1.390       .  A
C476        C525   1.488       .  S
C477        H479   1.082       .  S
Cu480       N483   2.089   1_554  S
Cu481       N491   2.099       .  S
Cu482       N484   2.114       .  S
Cu482       N490   2.114       .  S
N483        C487   1.349       .  A
N483        N484   1.324       .  A
N484        C485   1.352       .  A
C485        C486   1.392       .  A
C485        H488   1.082       .  S
C486        C487   1.386       .  A
C486        C561   1.492       .  S
C487        H489   1.082       .  S
N490        C494   1.352       .  A
N490        N491   1.325   1_556  A
N491        C492   1.350       .  A
C492        C493   1.388       .  A
C492        H495   1.082       .  S
C493        C494   1.391   1_554  A
C493        C579   1.492       .  S
C494        H496   1.082       .  S
C497        N503   1.344       .  A
C497        C502   1.383       .  A
C497        C498   1.405       .  A
C498        C499   1.403       .  A
C498        H509   1.082       .  S
C499        C508   1.381       .  A
C499        C500   1.382       .  A
C500        N506   1.350       .  A
C500        C501   1.412       .  A
C501        C502   1.411       .  A
C501        H510   1.082       .  S
C502        C505   1.389       .  A
N503        C504   1.357       .  A
N503        H513   1.044       .  S
C504        C505   1.400       .  A
C505        H511   1.082       .  S
N506        C507   1.360       .  A
N506        H514   1.044       .  S
C507        C508   1.397       .  A
C508        H512   1.082       .  S
C515        N521   1.350       .  A
C515        C520   1.383       .  A
C515        C516   1.409       .  A
C516        C517   1.409       .  A
C516        H527   1.082       .  S
C517        C526   1.384       .  A
C517        C518   1.383       .  A
C518        N524   1.348       .  A
C518        C519   1.406       .  A
C519        C520   1.407       .  A
C519        H528   1.082       .  S
C520        C523   1.380       .  A
N521        C522   1.358       .  A
N521        H531   1.044       .  S
C522        C523   1.398       .  A
C523        H529   1.082       .  S
N524        C525   1.358       .  A
N524        H532   1.043       .  S
C525        C526   1.400       .  A
C526        H530   1.082       .  S
C533        N539   1.353       .  A
C533        C538   1.383       .  A
C533        C534   1.411       .  A
C534        C535   1.412       .  A
C534        H545   1.082       .  S
C535        C544   1.386       .  A
C535        C536   1.383       .  A
C536        N542   1.348       .  A
C536        C537   1.405       .  A
C537        C538   1.406       .  A
C537        H546   1.082       .  S
C538        C541   1.378       .  A
N539        C540   1.359       .  A
N539        H549   1.044       .  S
C540        C541   1.398       .  A
C541        H547   1.083       .  S
N542        C543   1.358       .  A
N542        H550   1.043       .  S
C543        C544   1.401       .  A
C544        H548   1.082       .  S
C551        N557   1.344       .  A
C551        C556   1.383       .  A
C551        C552   1.408       .  A
C552        C553   1.405       .  A
C552        H563   1.082       .  S
C553        C562   1.384       .  A
C553        C554   1.382       .  A
C554        N560   1.349       .  A
C554        C555   1.412       .  A
C555        C556   1.411       .  A
C555        H564   1.082       .  S
C556        C559   1.391       .  A
N557        C558   1.358       .  A
N557        H567   1.045       .  S
C558        C559   1.401       .  A
C559        H565   1.082       .  S
N560        C561   1.361       .  A
N560        H568   1.044       .  S
C561        C562   1.398       .  A
C562        H566   1.082       .  S
C569        N575   1.350       .  A
C569        C574   1.383   1_554  A
C569        C570   1.410   1_455  A
C570        C571   1.410       .  A
C570        H581   1.082       .  S
C571        C580   1.385       .  A
C571        C572   1.383   1_554  A
C572        N578   1.349       .  A
C572        C573   1.408       .  A
C573        C574   1.408   1_655  A
C573        H582   1.082       .  S
C574        C577   1.384       .  A
N575        C576   1.360       .  A
N575        H585   1.045       .  S
C576        C577   1.400   1_554  A
C577        H583   1.082       .  S
N578        C579   1.359   1_556  A
N578        H586   1.045       .  S
C579        C580   1.401       .  A
C580        H584   1.082       .  S
C587        N593   1.354       .  A
C587        C592   1.383       .  A
C587        C588   1.413       .  A
C588        C589   1.414       .  A
C588        H599   1.082       .  S
C589        C598   1.388       .  A
C589        C590   1.383       .  A
C590        N596   1.349       .  A
C590        C591   1.405       .  A
C591        C592   1.406       .  A
C591        H600   1.082       .  S
C592        C595   1.377       .  A
N593        C594   1.360       .  A
N593        H603   1.045       .  S
C594        C595   1.397       .  A
C595        H601   1.083       .  S
N596        C597   1.358       .  A
N596        H604   1.043       .  S
C597        C598   1.403       .  A
C598        H602   1.082       .  S
C605        N611   1.350       .  A
C605        C610   1.382       .  A
C605        C606   1.413       .  A
C606        C607   1.412       .  A
C606        H617   1.082       .  S
C607        C616   1.391       .  A
C607        C608   1.383       .  A
C608        N614   1.344       .  A
C608        C609   1.407       .  A
C609        C610   1.404       .  A
C609        H618   1.082       .  S
C610        C613   1.382       .  A
N611        C612   1.361       .  A
N611        H621   1.044       .  S
C612        C613   1.398       .  A
C613        H619   1.082       .  S
N614        C615   1.358       .  A
N614        H622   1.045       .  S
C615        C616   1.402       .  A
C616        H620   1.082       .  S
C623        N629   1.345       .  A
C623        C628   1.383       .  A
C623        C624   1.407       .  A
C624        C625   1.405       .  A
C624        H635   1.082       .  S
C625        C634   1.383       .  A
C625        C626   1.382       .  A
C626        N632   1.350       .  A
C626        C627   1.411       .  A
C627        C628   1.411       .  A
C627        H636   1.082       .  S
C628        C631   1.389       .  A
N629        C630   1.357       .  A
N629        H639   1.044       .  S
C630        C631   1.400       .  A
C631        H637   1.082       .  S
N632        C633   1.360       .  A
N632        H640   1.044       .  S
C633        C634   1.398       .  A
C634        H638   1.082       .  S
C641        N647   1.344       .  A
C641        C646   1.383       .  A
C641        C642   1.407       .  A
C642        C643   1.404       .  A
C642        H653   1.082       .  S
C643        C652   1.383       .  A
C643        C644   1.382       .  A
C644        N650   1.351       .  A
C644        C645   1.413       .  A
C645        C646   1.412       .  A
C645        H654   1.082       .  S
C646        C649   1.391       .  A
N647        C648   1.357       .  A
N647        H657   1.045       .  S
C648        C649   1.401       .  A
C649        H655   1.082       .  S
N650        C651   1.361       .  A
N650        H658   1.044       .  S
C651        C652   1.398       .  A
C652        H656   1.082       .  S
C659        N665   1.350       .  A
C659        C664   1.383       .  A
C659        C660   1.410       .  A
C660        C661   1.409       .  A
C660        H671   1.082       .  S
C661        C670   1.385       .  A
C661        C662   1.383       .  A
C662        N668   1.350       .  A
C662        C663   1.410       .  A
C663        C664   1.410       .  A
C663        H672   1.082       .  S
C664        C667   1.385       .  A
N665        C666   1.360       .  A
N665        H675   1.044       .  S
C666        C667   1.400       .  A
C667        H673   1.082       .  S
N668        C669   1.360       .  A
N668        H676   1.045       .  S
C669        C670   1.400       .  A
C670        H674   1.082       .  S
C677        N683   1.352       .  A
C677        C682   1.383       .  A
C677        C678   1.412       .  A
C678        C679   1.411       .  A
C678        H689   1.082       .  S
C679        C688   1.387       .  A
C679        C680   1.383       .  A
C680        N686   1.347       .  A
C680        C681   1.405       .  A
C681        C682   1.406       .  A
C681        H690   1.082       .  S
C682        C685   1.378       .  A
N683        C684   1.360       .  A
N683        H693   1.044       .  S
C684        C685   1.398       .  A
C685        H691   1.083       .  S
N686        C687   1.358       .  A
N686        H694   1.043       .  S
C687        C688   1.402       .  A
C688        H692   1.082       .  S
C695        N701   1.344       .  A
C695        C700   1.383       .  A
C695        C696   1.407       .  A
C696        C697   1.405       .  A
C696        H707   1.082       .  S
C697        C706   1.383       .  A
C697        C698   1.383       .  A
C698        N704   1.348       .  A
C698        C699   1.410       .  A
C699        C700   1.408       .  A
C699        H708   1.082       .  S
C700        C703   1.388       .  A
N701        C702   1.357       .  A
N701        H711   1.045       .  S
C702        C703   1.398       .  A
C703        H709   1.082       .  S
N704        C705   1.359       .  A
N704        H712   1.044       .  S
C705        C706   1.399       .  A
C706        H710   1.082       .  S
C713        N719   1.344       .  A
C713        C718   1.383       .  A
C713        C714   1.408       .  A
C714        C715   1.405       .  A
C714        H725   1.082       .  S
C715        C724   1.384       .  A
C715        C716   1.382       .  A
C716        N722   1.350       .  A
C716        C717   1.413       .  A
C717        C718   1.412       .  A
C717        H726   1.082       .  S
C718        C721   1.392       .  A
N719        C720   1.358       .  A
N719        H729   1.044       .  S
C720        C721   1.401       .  A
C721        H727   1.082       .  S
N722        C723   1.361       .  A
N722        H730   1.044       .  S
C723        C724   1.398       .  A
C724        H728   1.082       .  S
C731        N737   1.345       .  A
C731        C736   1.383       .  A
C731        C732   1.407       .  A
C732        C733   1.405       .  A
C732        H743   1.082       .  S
C733        C742   1.383       .  A
C733        C734   1.382       .  A
C734        N740   1.350       .  A
C734        C735   1.412       .  A
C735        C736   1.411       .  A
C735        H744   1.082       .  S
C736        C739   1.390       .  A
N737        C738   1.358       .  A
N737        H747   1.045       .  S
C738        C739   1.401       .  A
C739        H745   1.082       .  S
N740        C741   1.360       .  A
N740        H748   1.044       .  S
C741        C742   1.398       .  A
C742        H746   1.082       .  S
C749        N755   1.353       .  A
C749        C754   1.383       .  A
C749        C750   1.411       .  A
C750        C751   1.412       .  A
C750        H761   1.082       .  S
C751        C760   1.386       .  A
C751        C752   1.383       .  A
C752        N758   1.353       .  A
C752        C753   1.410       .  A
C753        C754   1.411       .  A
C753        H762   1.082       .  S
C754        C757   1.385       .  A
N755        C756   1.361       .  A
N755        H765   1.045       .  S
C756        C757   1.401       .  A
C757        H763   1.082       .  S
N758        C759   1.360       .  A
N758        H766   1.045       .  S
C759        C760   1.402       .  A
C760        H764   1.082       .  S
C767        N773   1.349       .  A
C767        C772   1.383   1_554  A
C767        C768   1.409       .  A
C768        C769   1.409   1_655  A
C768        H779   1.082       .  S
C769        C778   1.384       .  A
C769        C770   1.383   1_554  A
C770        N776   1.350       .  A
C770        C771   1.409   1_455  A
C771        C772   1.409       .  A
C771        H780   1.082       .  S
C772        C775   1.384       .  A
N773        C774   1.359   1_554  A
N773        H783   1.045       .  S
C774        C775   1.400       .  A
C775        H781   1.082       .  S
N776        C777   1.360       .  A
N776        H784   1.045       .  S
C777        C778   1.400   1_556  A
C778        H782   1.082       .  S
C785        N791   1.353       .  A
C785        C790   1.383       .  A
C785        C786   1.411       .  A
C786        C787   1.411       .  A
C786        H797   1.082       .  S
C787        C796   1.386       .  A
C787        C788   1.383       .  A
C788        N794   1.349       .  A
C788        C789   1.407       .  A
C789        C790   1.408       .  A
C789        H798   1.082       .  S
C790        C793   1.380       .  A
N791        C792   1.359       .  A
N791        H801   1.044       .  S
C792        C793   1.399       .  A
C793        H799   1.083       .  S
N794        C795   1.359       .  A
N794        H802   1.043       .  S
C795        C796   1.401       .  A
C796        H800   1.082       .  S
C803        N809   1.353       .  A
C803        C808   1.383       .  A
C803        C804   1.412       .  A
C804        C805   1.412       .  A
C804        H815   1.082       .  S
C805        C814   1.386       .  A
C805        C806   1.383       .  A
C806        N812   1.348       .  A
C806        C807   1.405       .  A
C807        C808   1.406       .  A
C807        H816   1.082       .  S
C808        C811   1.378       .  A
N809        C810   1.360       .  A
N809        H819   1.044       .  S
C810        C811   1.398       .  A
C811        H817   1.083       .  S
N812        C813   1.357       .  A
N812        H820   1.043       .  S
C813        C814   1.402       .  A
C814        H818   1.082       .  S
C821        N827   1.352       .  A
C821        C826   1.383       .  A
C821        C822   1.410       .  A
C822        C823   1.411       .  A
C822        H833   1.082       .  S
C823        C832   1.385       .  A
C823        C824   1.383       .  A
C824        N830   1.348       .  A
C824        C825   1.405       .  A
C825        C826   1.406       .  A
C825        H834   1.082       .  S
C826        C829   1.377       .  A
N827        C828   1.359       .  A
N827        H837   1.045       .  S
C828        C829   1.397       .  A
C829        H835   1.082       .  S
N830        C831   1.358       .  A
N830        H838   1.043       .  S
C831        C832   1.401       .  A
C832        H836   1.082       .  S
C839        N845   1.351       .  A
C839        C844   1.382       .  A
C839        C840   1.413       .  A
C840        C841   1.413       .  A
C840        H851   1.082       .  S
C841        C850   1.392       .  A
C841        C842   1.383       .  A
C842        N848   1.343       .  A
C842        C843   1.406       .  A
C843        C844   1.403       .  A
C843        H852   1.082       .  S
C844        C847   1.381       .  A
N845        C846   1.361       .  A
N845        H855   1.044       .  S
C846        C847   1.396       .  A
C847        H853   1.082       .  S
N848        C849   1.357       .  A
N848        H856   1.045       .  S
C849        C850   1.402       .  A
C850        H854   1.082       .  S
C857        N863   1.347       .  A
C857        C862   1.384       .  A
C857        C858   1.408       .  A
C858        C859   1.408       .  A
C858        H869   1.082       .  S
C859        C868   1.385       .  A
C859        C860   1.384       .  A
C860        N866   1.345       .  A
C860        C861   1.406       .  A
C861        C862   1.405       .  A
C861        H870   1.082       .  S
C862        C865   1.382       .  A
N863        C864   1.358       .  A
N863        H873   1.043       .  S
C864        C865   1.397       .  A
C865        H871   1.082       .  S
N866        C867   1.358       .  A
N866        H874   1.042       .  S
C867        C868   1.399       .  A
C868        H872   1.082       .  S
C875        N881   1.344       .  A
C875        C880   1.383       .  A
C875        C876   1.406       .  A
C876        C877   1.404       .  A
C876        H887   1.082       .  S
C877        C886   1.383       .  A
C877        C878   1.382       .  A
C878        N884   1.351       .  A
C878        C879   1.414       .  A
C879        C880   1.413       .  A
C879        H888   1.082       .  S
C880        C883   1.392       .  A
N881        C882   1.357       .  A
N881        H891   1.045       .  S
C882        C883   1.402       .  A
C883        H889   1.082       .  S
N884        C885   1.362       .  A
N884        H892   1.044       .  S
C885        C886   1.397       .  A
C886        H890   1.082       .  S
C893        N899   1.353       .  A
C893        C898   1.383       .  A
C893        C894   1.412       .  A
C894        C895   1.412       .  A
C894        H905   1.082       .  S
C895        C904   1.386       .  A
C895        C896   1.383       .  A
C896        N902   1.350       .  A
C896        C897   1.407       .  A
C897        C898   1.408       .  A
C897        H906   1.082       .  S
C898        C901   1.381       .  A
N899        C900   1.360       .  A
N899        H909   1.044       .  S
C900        C901   1.399       .  A
C901        H907   1.082       .  S
N902        C903   1.359       .  A
N902        H910   1.043       .  S
C903        C904   1.402       .  A
C904        H908   1.082       .  S
C911        N917   1.344       .  A
C911        C916   1.384       .  A
C911        C912   1.405       .  A
C912        C913   1.404       .  A
C912        H923   1.082       .  S
C913        C922   1.381       .  A
C913        C914   1.384       .  A
C914        N920   1.346       .  A
C914        C915   1.408       .  A
C915        C916   1.407       .  A
C915        H924   1.082       .  S
C916        C919   1.384       .  A
N917        C918   1.357       .  A
N917        H927   1.043       .  S
C918        C919   1.398       .  A
C919        H925   1.082       .  S
N920        C921   1.359       .  A
N920        H928   1.042       .  S
C921        C922   1.397       .  A
C922        H926   1.082       .  S
C929        N935   1.344       .  A
C929        C934   1.383       .  A
C929        C930   1.406       .  A
C930        C931   1.404       .  A
C930        H941   1.082       .  S
C931        C940   1.382       .  A
C931        C932   1.382       .  A
C932        N938   1.351       .  A
C932        C933   1.414       .  A
C933        C934   1.413       .  A
C933        H942   1.082       .  S
C934        C937   1.392       .  A
N935        C936   1.357       .  A
N935        H945   1.045       .  S
C936        C937   1.402       .  A
C937        H943   1.082       .  S
N938        C939   1.361       .  A
N938        H946   1.044       .  S
C939        C940   1.397       .  A
C940        H944   1.082       .  S
C947        N953   1.344       .  A
C947        C952   1.383       .  A
C947        C948   1.406       .  A
C948        C949   1.404       .  A
C948        H959   1.082       .  S
C949        C958   1.383       .  A
C949        C950   1.382       .  A
C950        N956   1.350       .  A
C950        C951   1.413       .  A
C951        C952   1.412       .  A
C951        H960   1.082       .  S
C952        C955   1.391       .  A
N953        C954   1.357       .  A
N953        H963   1.045       .  S
C954        C955   1.401       .  A
C955        H961   1.082       .  S
N956        C957   1.361       .  A
N956        H964   1.044       .  S
C957        C958   1.397       .  A
C958        H962   1.082       .  S
C965        N971   1.350       .  A
C965        C970   1.382   1_554  A
C965        C966   1.412       .  A
C966        C967   1.411   1_565  A
C966        H977   1.082       .  S
C967        C976   1.389       .  A
C967        C968   1.382   1_554  A
C968        N974   1.351       .  A
C968        C969   1.412   1_545  A
C969        C970   1.411       .  A
C969        H978   1.082       .  S
C970        C973   1.389       .  A
N971        C972   1.361   1_554  A
N971        H981   1.045       .  S
C972        C973   1.402       .  A
C973        H979   1.082       .  S
N974        C975   1.361   1_556  A
N974        H982   1.044       .  S
C975        C976   1.402       .  A
C976        H980   1.082       .  S
C983        N989   1.345       .  A
C983        C988   1.384       .  A
C983        C984   1.406       .  A
C984        C985   1.405       .  A
C984        H995   1.082       .  S
C985        C994   1.381       .  A
C985        C986   1.384       .  A
C986        N992   1.344       .  A
C986        C987   1.404       .  A
C987        C988   1.403       .  A
C987        H996   1.082       .  S
C988        C991   1.379       .  A
N989        C990   1.358       .  A
N989        H999   1.043       .  S
C990        C991   1.397       .  A
C991        H997   1.081       .  S
N992        C993   1.357       .  A
N992       H1000   1.043       .  S
C993        C994   1.399       .  A
C994        H998   1.081       .  S
C1001      N1007   1.344       .  A
C1001      C1006   1.383       .  A
C1001      C1002   1.407       .  A
C1002      C1003   1.405       .  A
C1002      H1013   1.082       .  S
C1003      C1012   1.384       .  A
C1003      C1004   1.383       .  A
C1004      N1010   1.349       .  A
C1004      C1005   1.412       .  A
C1005      C1006   1.410       .  A
C1005      H1014   1.082       .  S
C1006      C1009   1.390       .  A
N1007      C1008   1.358       .  A
N1007      H1017   1.045       .  S
C1008      C1009   1.400       .  A
C1009      H1015   1.082       .  S
N1010      C1011   1.360       .  A
N1010      H1018   1.044       .  S
C1011      C1012   1.398       .  A
C1012      H1016   1.082       .  S
C1019      N1025   1.346       .  A
C1019      C1024   1.383       .  A
C1019      C1020   1.409       .  A
C1020      C1021   1.407       .  A
C1020      H1031   1.082       .  S
C1021      C1030   1.385       .  A
C1021      C1022   1.382       .  A
C1022      N1028   1.350       .  A
C1022      C1023   1.412       .  A
C1023      C1024   1.411       .  A
C1023      H1032   1.082       .  S
C1024      C1027   1.390       .  A
N1025      C1026   1.358       .  A
N1025      H1035   1.044       .  S
C1026      C1027   1.400       .  A
C1027      H1033   1.082       .  S
N1028      C1029   1.360       .  A
N1028      H1036   1.044       .  S
C1029      C1030   1.399       .  A
C1030      H1034   1.082       .  S
C1037      N1043   1.345       .  A
C1037      C1042   1.384       .  A
C1037      C1038   1.406       .  A
C1038      C1039   1.405       .  A
C1038      H1049   1.082       .  S
C1039      C1048   1.382       .  A
C1039      C1040   1.384       .  A
C1040      N1046   1.346       .  A
C1040      C1041   1.407       .  A
C1041      C1042   1.406       .  A
C1041      H1050   1.082       .  S
C1042      C1045   1.383       .  A
N1043      C1044   1.357       .  A
N1043      H1053   1.043       .  S
C1044      C1045   1.398       .  A
C1045      H1051   1.082       .  S
N1046      C1047   1.358       .  A
N1046      H1054   1.042       .  S
C1047      C1048   1.398       .  A
C1048      H1052   1.082       .  S
C1055      N1061   1.344       .  A
C1055      C1060   1.383       .  A
C1055      C1056   1.406       .  A
C1056      C1057   1.403       .  A
C1056      H1067   1.082       .  S
C1057      C1066   1.380       .  A
C1057      C1058   1.382       .  A
C1058      N1064   1.351       .  A
C1058      C1059   1.413       .  A
C1059      C1060   1.412       .  A
C1059      H1068   1.082       .  S
C1060      C1063   1.391       .  A
N1061      C1062   1.357       .  A
N1061      H1071   1.045       .  S
C1062      C1063   1.401       .  A
C1063      H1069   1.082       .  S
N1064      C1065   1.361       .  A
N1064      H1072   1.044       .  S
C1065      C1066   1.397       .  A
C1066      H1070   1.082       .  S
C1073      N1079   1.345       .  A
C1073      C1078   1.383       .  A
C1073      C1074   1.407       .  A
C1074      C1075   1.405       .  A
C1074      H1085   1.082       .  S
C1075      C1084   1.383       .  A
C1075      C1076   1.382       .  A
C1076      N1082   1.352       .  A
C1076      C1077   1.414       .  A
C1077      C1078   1.412       .  A
C1077      H1086   1.082       .  S
C1078      C1081   1.392       .  A
N1079      C1080   1.357       .  A
N1079      H1089   1.045       .  S
C1080      C1081   1.401       .  A
C1081      H1087   1.082       .  S
N1082      C1083   1.362       .  A
N1082      H1090   1.044       .  S
C1083      C1084   1.398       .  A
C1084      H1088   1.082       .  S
C1091      N1097   1.348       .  A
C1091      C1096   1.383       .  A
C1091      C1092   1.409       .  A
C1092      C1093   1.408       .  A
C1092      H1103   1.082       .  S
C1093      C1102   1.384       .  A
C1093      C1094   1.383       .  A
C1094      N1100   1.348       .  A
C1094      C1095   1.409       .  A
C1095      C1096   1.408       .  A
C1095      H1104   1.082       .  S
C1096      C1099   1.385       .  A
N1097      C1098   1.359       .  A
N1097      H1107   1.045       .  S
C1098      C1099   1.400       .  A
C1099      H1105   1.082       .  S
N1100      C1101   1.359       .  A
N1100      H1108   1.045       .  S
C1101      C1102   1.399       .  A
C1102      H1106   1.082       .  S
C1109      N1115   1.347       .  A
C1109      C1114   1.385       .  A
C1109      C1110   1.405       .  A
C1110      C1111   1.405       .  A
C1110      H1121   1.082       .  S
C1111      C1120   1.380       .  A
C1111      C1112   1.385       .  A
C1112      N1118   1.346       .  A
C1112      C1113   1.405       .  A
C1113      C1114   1.405       .  A
C1113      H1122   1.082       .  S
C1114      C1117   1.379       .  A
N1115      C1116   1.357       .  A
N1115      H1125   1.043       .  S
C1116      C1117   1.397       .  A
C1117      H1123   1.082       .  S
N1118      C1119   1.357       .  A
N1118      H1126   1.043       .  S
C1119      C1120   1.397       .  A
C1120      H1124   1.082       .  S
C1127      N1133   1.344       .  A
C1127      C1132   1.383       .  A
C1127      C1128   1.407       .  A
C1128      C1129   1.404       .  A
C1128      H1139   1.082       .  S
C1129      C1138   1.382       .  A
C1129      C1130   1.382       .  A
C1130      N1136   1.350       .  A
C1130      C1131   1.412       .  A
C1131      C1132   1.411       .  A
C1131      H1140   1.082       .  S
C1132      C1135   1.390       .  A
N1133      C1134   1.357       .  A
N1133      H1143   1.045       .  S
C1134      C1135   1.400       .  A
C1135      H1141   1.082       .  S
N1136      C1137   1.360       .  A
N1136      H1144   1.044       .  S
C1137      C1138   1.397       .  A
C1138      H1142   1.082       .  S
C1145      N1151   1.345       .  A
C1145      C1150   1.383       .  A
C1145      C1146   1.406       .  A
C1146      C1147   1.405       .  A
C1146      H1157   1.082       .  S
C1147      C1156   1.382       .  A
C1147      C1148   1.383       .  A
C1148      N1154   1.350       .  A
C1148      C1149   1.411       .  A
C1149      C1150   1.410       .  A
C1149      H1158   1.082       .  S
C1150      C1153   1.388       .  A
N1151      C1152   1.357       .  A
N1151      H1161   1.045       .  S
C1152      C1153   1.399       .  A
C1153      H1159   1.082       .  S
N1154      C1155   1.360       .  A
N1154      H1162   1.044       .  S
C1155      C1156   1.398       .  A
C1156      H1160   1.082       .  S
C1163      N1169   1.347       .  A
C1163      C1168   1.384       .  A
C1163      C1164   1.408       .  A
C1164      C1165   1.407       .  A
C1164      H1175   1.082       .  S
C1165      C1174   1.383       .  A
C1165      C1166   1.384       .  A
C1166      N1172   1.348       .  A
C1166      C1167   1.409       .  A
C1167      C1168   1.408       .  A
C1167      H1176   1.082       .  S
C1168      C1171   1.385       .  A
N1169      C1170   1.359       .  A
N1169      H1179   1.042       .  S
C1170      C1171   1.399       .  A
C1171      H1177   1.081       .  S
N1172      C1173   1.359       .  A
N1172      H1180   1.042       .  S
C1173      C1174   1.399       .  A
C1174      H1178   1.081       .  S
C1181      N1187   1.345       .  A
C1181      C1186   1.382       .  A
C1181      C1182   1.409       .  A
C1182      C1183   1.406       .  A
C1182      H1193   1.082       .  S
C1183      C1192   1.385       .  A
C1183      C1184   1.382       .  A
C1184      N1190   1.351       .  A
C1184      C1185   1.413       .  A
C1185      C1186   1.412       .  A
C1185      H1194   1.082       .  S
C1186      C1189   1.392       .  A
N1187      C1188   1.359       .  A
N1187      H1197   1.045       .  S
C1188      C1189   1.401       .  A
C1189      H1195   1.082       .  S
N1190      C1191   1.361       .  A
N1190      H1198   1.044       .  S
C1191      C1192   1.399       .  A
C1192      H1196   1.082       .  S
C1199      N1205   1.352       .  A
C1199      C1204   1.383       .  A
C1199      C1200   1.410       .  A
C1200      C1201   1.410       .  A
C1200      H1211   1.082       .  S
C1201      C1210   1.384       .  A
C1201      C1202   1.383       .  A
C1202      N1208   1.348       .  A
C1202      C1203   1.405       .  A
C1203      C1204   1.407       .  A
C1203      H1212   1.082       .  S
C1204      C1207   1.378       .  A
N1205      C1206   1.359       .  A
N1205      H1215   1.044       .  S
C1206      C1207   1.399       .  A
C1207      H1213   1.083       .  S
N1208      C1209   1.358       .  A
N1208      H1216   1.043       .  S
C1209      C1210   1.400       .  A
C1210      H1214   1.082       .  S
C1217      N1223   1.348       .  A
C1217      C1222   1.383   1_556  A
C1217      C1218   1.409   1_545  A
C1218      C1219   1.408       .  A
C1218      H1229   1.082       .  S
C1219      C1228   1.385       .  A
C1219      C1220   1.383   1_556  A
C1220      N1226   1.347       .  A
C1220      C1221   1.408       .  A
C1221      C1222   1.407   1_565  A
C1221      H1230   1.082       .  S
C1222      C1225   1.384       .  A
N1223      C1224   1.359   1_556  A
N1223      H1233   1.044       .  S
C1224      C1225   1.399       .  A
C1225      H1231   1.082       .  S
N1226      C1227   1.358   1_554  A
N1226      H1234   1.045       .  S
C1227      C1228   1.400       .  A
C1228      H1232   1.082       .  S
C1235      N1241   1.347       .  A
C1235      C1240   1.383       .  A
C1235      C1236   1.407       .  A
C1236      C1237   1.406       .  A
C1236      H1247   1.082       .  S
C1237      C1246   1.383       .  A
C1237      C1238   1.383       .  A
C1238      N1244   1.351       .  A
C1238      C1239   1.413       .  A
C1239      C1240   1.412       .  A
C1239      H1248   1.082       .  S
C1240      C1243   1.390       .  A
N1241      C1242   1.358       .  A
N1241      H1251   1.045       .  S
C1242      C1243   1.402       .  A
C1243      H1249   1.082       .  S
N1244      C1245   1.361       .  A
N1244      H1252   1.045       .  S
C1245      C1246   1.398       .  A
C1246      H1250   1.082       .  S
C1253      N1259   1.346       .  A
C1253      C1258   1.384       .  A
C1253      C1254   1.405       .  A
C1254      C1255   1.404       .  A
C1254      H1265   1.082       .  S
C1255      C1264   1.381       .  A
C1255      C1256   1.384       .  A
C1256      N1262   1.348       .  A
C1256      C1257   1.409       .  A
C1257      C1258   1.408       .  A
C1257      H1266   1.082       .  S
C1258      C1261   1.384       .  A
N1259      C1260   1.357       .  A
N1259      H1269   1.043       .  S
C1260      C1261   1.400       .  A
C1261      H1267   1.082       .  S
N1262      C1263   1.359       .  A
N1262      H1270   1.043       .  S
C1263      C1264   1.397       .  A
C1264      H1268   1.081       .  S
C1271      N1277   1.345       .  A
C1271      C1276   1.383       .  A
C1271      C1272   1.409       .  A
C1272      C1273   1.407       .  A
C1272      H1283   1.082       .  S
C1273      C1282   1.386       .  A
C1273      C1274   1.382       .  A
C1274      N1280   1.349       .  A
C1274      C1275   1.412       .  A
C1275      C1276   1.410       .  A
C1275      H1284   1.082       .  S
C1276      C1279   1.390       .  A
N1277      C1278   1.359       .  A
N1277      H1287   1.045       .  S
C1278      C1279   1.400       .  A
C1279      H1285   1.082       .  S
N1280      C1281   1.360       .  A
N1280      H1288   1.044       .  S
C1281      C1282   1.399       .  A
C1282      H1286   1.082       .  S
C1289      N1295   1.351       .  A
C1289      C1294   1.383       .  A
C1289      C1290   1.410       .  A
C1290      C1291   1.410       .  A
C1290      H1301   1.082       .  S
C1291      C1300   1.384       .  A
C1291      C1292   1.383       .  A
C1292      N1298   1.349       .  A
C1292      C1293   1.406       .  A
C1293      C1294   1.407       .  A
C1293      H1302   1.082       .  S
C1294      C1297   1.380       .  A
N1295      C1296   1.359       .  A
N1295      H1305   1.044       .  S
C1296      C1297   1.398       .  A
C1297      H1303   1.082       .  S
N1298      C1299   1.358       .  A
N1298      H1306   1.043       .  S
C1299      C1300   1.400       .  A
C1300      H1304   1.082       .  S
C1307      N1313   1.347       .  A
C1307      C1312   1.384       .  A
C1307      C1308   1.406       .  A
C1308      C1309   1.406       .  A
C1308      H1319   1.082       .  S
C1309      C1318   1.381       .  A
C1309      C1310   1.384       .  A
C1310      N1316   1.348       .  A
C1310      C1311   1.407       .  A
C1311      C1312   1.407       .  A
C1311      H1320   1.082       .  S
C1312      C1315   1.383       .  A
N1313      C1314   1.357       .  A
N1313      H1323   1.044       .  S
C1314      C1315   1.399       .  A
C1315      H1321   1.082       .  S
N1316      C1317   1.358       .  A
N1316      H1324   1.043       .  S
C1317      C1318   1.398       .  A
C1318      H1322   1.082       .  S
C1325      N1331   1.353       .  A
C1325      C1330   1.383       .  A
C1325      C1326   1.413       .  A
C1326      C1327   1.413       .  A
C1326      H1337   1.082       .  S
C1327      C1336   1.389       .  A
C1327      C1328   1.383       .  A
C1328      N1334   1.347       .  A
C1328      C1329   1.405       .  A
C1329      C1330   1.406       .  A
C1329      H1338   1.082       .  S
C1330      C1333   1.379       .  A
N1331      C1332   1.360       .  A
N1331      H1341   1.044       .  S
C1332      C1333   1.398       .  A
C1333      H1339   1.083       .  S
N1334      C1335   1.358       .  A
N1334      H1342   1.043       .  S
C1335      C1336   1.403       .  A
C1336      H1340   1.082       .  S
C1343      N1349   1.354       .  A
C1343      C1348   1.383       .  A
C1343      C1344   1.412       .  A
C1344      C1345   1.413       .  A
C1344      H1355   1.082       .  S
C1345      C1354   1.387       .  A
C1345      C1346   1.383       .  A
C1346      N1352   1.348       .  A
C1346      C1347   1.405       .  A
C1347      C1348   1.406       .  A
C1347      H1356   1.082       .  S
C1348      C1351   1.378       .  A
N1349      C1350   1.360       .  A
N1349      H1359   1.045       .  S
C1350      C1351   1.398       .  A
C1351      H1357   1.083       .  S
N1352      C1353   1.358       .  A
N1352      H1360   1.043       .  S
C1353      C1354   1.402       .  A
C1354      H1358   1.082       .  S
