geometry optimzed in LAMMPS
_audit_creation_date              2020-12-01 
_audit_creation_method            'lammps2cif' 
_symmetry_space_group_name_H-M    'P1' 
_symmetry_Int_Tables_number       1 
_symmetry_cell_setting            triclinic 
loop_ 
_symmetry_equiv_pos_as_xyz 
  x,y,z 
_cell_length_a                    33.1599756 
_cell_length_b                    52.19326099689697 
_cell_length_c                    36.005447855903824 
_cell_angle_alpha                 90.06585630631481 
_cell_angle_beta                  90.01415360822233 
_cell_angle_gamma                 90.01782888495198 
loop_ 
_atom_site_label 
_atom_site_type_symbol 
_atom_site_fract_x 
_atom_site_fract_y 
_atom_site_fract_z 
_atom_site_charge 
O1          O  0.23225799  0.00007475  0.05601014    -0.70400
O2          O  0.23224790  0.99998234  0.44396199    -0.71400
O3          O  0.23200707  0.96165538  0.49999990    -0.60000
O4          O  0.23191705  0.03840983  0.49996526    -0.68400
O5          O  0.29894638  0.03860107  0.49995408    -0.68000
O6          O  0.29903653  0.96155457  0.00003160    -0.59200
O7          O  0.29918275  0.00001425  0.44419814    -0.71700
O8          O  0.29919214  0.00013619  0.05579387    -0.70500
Cu9        Cu  0.22975855  0.00002976  0.49998354     1.04600
Cu10       Cu  0.30143521  0.00007956  0.99999622     1.04300
C11         C  0.26584594  0.00010607  0.07352787     0.95800
C12         C  0.26583299  0.99998504  0.42645561     0.94900
C13         C  0.26544606  0.94958935  0.00003814     0.87100
C14         C  0.26532874  0.05052243  0.49993686     0.93400
O15         O  0.20084246  0.99990449  0.19418508    -0.70400
O16         O  0.20082291  0.99992813  0.30577737    -0.71400
O17         O  0.20099280  0.03843772  0.25002134    -0.60000
O18         O  0.20106643  0.96139011  0.24994567    -0.68400
O19         O  0.26809587  0.96157516  0.24994851    -0.68000
O20         O  0.26802305  0.03832988  0.25006074    -0.59200
O21         O  0.26775755  0.99995477  0.30602436    -0.71700
O22         O  0.26777678  0.99995999  0.19397750    -0.70500
Cu23       Cu  0.19858602  0.99991283  0.24998159     1.04600
Cu24       Cu  0.27026319  0.99995516  0.25000401     1.04300
C25         C  0.23419137  0.99994307  0.17645553     0.95800
C26         C  0.23416917  0.99994305  0.32352541     0.94900
C27         C  0.23458581  0.05040023  0.25004666     0.87100
C28         C  0.23468131  0.94946564  0.24994184     0.93400
C29         C  0.26000017  0.17871165  0.49959663     0.05700
C30         C  0.22327038  0.19198274  0.49958663    -0.10500
C31         C  0.22297112  0.21884346  0.49956870     0.03200
C32         C  0.25948384  0.23240530  0.49955519    -0.09000
C33         C  0.29620588  0.21910789  0.49956992     0.05700
C34         C  0.29640479  0.19228909  0.49958787    -0.08400
H35         H  0.19506182  0.18146048  0.49960164     0.11300
H36         H  0.25932149  0.25318325  0.49954480     0.08800
H37         H  0.32482867  0.18200662  0.49960376     0.08600
C38         C  0.23989835  0.17858670  0.25022030     0.05700
C39         C  0.27664975  0.19184730  0.25028080    -0.10500
C40         C  0.27699302  0.21870733  0.25042873     0.03200
C41         C  0.24050312  0.23227912  0.25052061    -0.09000
C42         C  0.20375938  0.21899153  0.25044956     0.05700
C43         C  0.20351606  0.19217307  0.25030141    -0.08400
H44         H  0.30484058  0.18131756  0.25021363     0.11300
H45         H  0.24069998  0.25305696  0.25062784     0.08800
H46         H  0.17507546  0.18189794  0.25024917     0.08600
C47         C  0.26014118  0.82140354  0.00034377     0.05700
C48         C  0.29652371  0.80781734  0.00033146    -0.10500
C49         C  0.29628086  0.78099893  0.00029451     0.03200
C50         C  0.25953735  0.76771096  0.00026700    -0.09000
C51         C  0.22304695  0.78128254  0.00029042     0.05700
C52         C  0.22338986  0.80814266  0.00032695    -0.08400
H53         H  0.32496469  0.81809282  0.00034663     0.11300
H54         H  0.25934114  0.74693324  0.00024116     0.08800
H55         H  0.19519828  0.81867256  0.00033863     0.08600
C56         C  0.23997958  0.82127550  0.24975960     0.05700
C57         C  0.27670794  0.80800283  0.24972082    -0.10500
C58         C  0.27700429  0.78114218  0.24961632     0.03200
C59         C  0.24049013  0.76758195  0.24955517    -0.09000
C60         C  0.20376938  0.78088092  0.24958862     0.05700
C61         C  0.20357340  0.80769969  0.24969291    -0.08400
H62         H  0.30491752  0.81852390  0.24976677     0.11300
H63         H  0.24065044  0.74680410  0.24947544     0.08800
H64         H  0.17515022  0.81798362  0.24971808     0.08600
C65         C  0.50899026  0.67865180  0.00025480     0.05700
C66         C  0.47274031  0.69237356  0.00025648    -0.10500
C67         C  0.47322011  0.71918577  0.00026265     0.03200
C68         C  0.01007804  0.73234194  0.00026083    -0.09000
C69         C  0.04645002  0.71863992  0.00025927     0.05700
C70         C  0.04586966  0.69177607  0.00025347    -0.08400
H71         H  0.44420439  0.68220342  0.00025970     0.11300
H72         H  0.01045433  0.75311900  0.00026973     0.08800
H73         H  0.07396406  0.68114235  0.00025426     0.08600
C74         C  0.49099519  0.67851952  0.25006411     0.04500
C75         C  0.02724602  0.69225412  0.24994529    -0.10500
C76         C  0.02676876  0.71906525  0.24972164     0.03200
C77         C  0.98991153  0.73220774  0.24962413    -0.09000
C78         C  0.45353787  0.71849291  0.24974726     0.05700
C79         C  0.45411633  0.69162981  0.24997014    -0.08400
H80         H  0.05578137  0.68209442  0.25001115     0.11300
H81         H  0.98953708  0.75298357  0.24945014     0.08800
H82         H  0.42602202  0.68098618  0.25005448     0.08600
C83         C  0.00898421  0.32146840  0.49925937     0.05700
C84         C  0.04586175  0.30835664  0.49930909    -0.10500
C85         C  0.04643791  0.28149310  0.49941683     0.03200
C86         C  0.51006302  0.26777921  0.49946841    -0.09000
C87         C  0.47320704  0.28092322  0.49941489     0.05700
C88         C  0.47273224  0.30773488  0.49930568    -0.08400
H89         H  0.07395739  0.31899976  0.49928435     0.11300
H90         H  0.51043556  0.24700282  0.49955918     0.08800
H91         H  0.44419843  0.31789566  0.49927882     0.08600
C92         C  0.99104604  0.32133833  0.25034253     0.05700
C93         C  0.02729758  0.30761812  0.25040429    -0.10500
C94         C  0.02682053  0.28080605  0.25049707     0.03200
C95         C  0.98996396  0.26764851  0.25053570    -0.09000
C96         C  0.45359078  0.28134893  0.25047449     0.05700
C97         C  0.45416834  0.30821262  0.25038113    -0.08400
H98         H  0.05583198  0.31778923  0.25036928     0.11300
H99         H  0.48958977  0.24687159  0.25059886     0.08800
H100        H  0.42607394  0.31884476  0.25032795     0.08600
O101        O  0.02648218  0.50000485  0.05892028    -0.70400
O102        O  0.04131172  0.50010113  0.44829647    -0.71400
O103        O  0.03429155  0.53840105  0.50377394    -0.60000
O104        O  0.03427185  0.46171053  0.50348980    -0.68400
O105        O  0.46771338  0.46149884  0.99606332    -0.68000
O106        O  0.46773408  0.53861522  0.99633718    -0.59200
O107        O  0.47479065  0.50009501  0.44114680    -0.71700
O108        O  0.46002267  0.50000988  0.05129024    -0.70500
Cu109      Cu  0.03642545  0.50005516  0.50389696     1.04600
Cu110      Cu  0.46521789  0.50005639  0.99594654     1.04300
C111        C  0.99084008  0.49999180  0.07249681     0.95800
C112        C  0.01025144  0.50009844  0.42731074     0.94900
C113        C  0.00114472  0.55052495  0.00007434     0.87100
C114        C  0.00112943  0.44958868  0.49969376     0.93400
O115        O  0.03229003  0.53849903  0.25383428    -0.70400
O116        O  0.03229024  0.46138224  0.25375136    -0.71400
O117        O  0.03999391  0.49992611  0.19870293    -0.60000
O118        O  0.02524000  0.49996277  0.30884369    -0.68400
O119        O  0.45871827  0.49993985  0.30169966    -0.68000
O120        O  0.47353472  0.49991625  0.19107082    -0.59200
O121        O  0.46574141  0.46157919  0.24631477    -0.71700
O122        O  0.46573908  0.53826948  0.24641219    -0.70500
Cu123      Cu  0.03479623  0.49994175  0.25404679     1.04600
Cu124      Cu  0.46359676  0.49992444  0.24609889     1.04300
C125        C  0.99887889  0.55039979  0.25017005     0.95800
C126        C  0.99888231  0.44946477  0.25004489     0.94900
C127        C  0.00917720  0.49992122  0.17749539     0.87100
C128        C  0.98978058  0.49996620  0.32268269     0.93400
C129        C  0.98428707  0.50000561  0.36322513    -0.13900
C130        C  0.01574746  0.50008351  0.38676840    -0.29100
H131        H  0.45363712  0.49997065  0.37389114     0.15100
H132        H  0.04639756  0.50011637  0.37610288     0.15700
C133        C  0.01544812  0.49992951  0.13703465    -0.13900
C134        C  0.98457006  0.49995918  0.11295754    -0.29100
H135        H  0.04630120  0.49992442  0.12686756     0.15100
H136        H  0.45371719  0.49996589  0.12312480     0.15700
C137        C  0.99832213  0.42199201  0.25010668    -0.16000
C138        C  0.49654577  0.39893224  0.25012707     0.08100
C139        C  0.99386298  0.37195483  0.25016475     0.10000
C140        C  0.99196005  0.34889835  0.25023204    -0.16800
C141        C  0.00806977  0.34902774  0.49922781    -0.16000
C142        C  0.50616091  0.37208306  0.49925797     0.08100
C143        C  0.00346256  0.39905976  0.99934794     0.10000
C144        C  0.00168810  0.42211703  0.49947359    -0.16800
C145        C  0.99831356  0.57787161  0.25030280    -0.16000
C146        C  0.99652577  0.60093002  0.25033685     0.08100
C147        C  0.49382646  0.62790530  0.25030481     0.10000
C148        C  0.49191272  0.65096042  0.25022547    -0.16800
C149        C  0.50807356  0.65109166  0.00025395    -0.16000
C150        C  0.00616964  0.62803509  0.00022674     0.08100
C151        C  0.50348666  0.60105758  0.00015769     0.10000
C152        C  0.00170931  0.57799779  0.00009538    -0.16800
C153        C  0.16613923  0.76715001  0.24951926    -0.16000
C154        C  0.13406784  0.75628851  0.24949225     0.08100
C155        C  0.09629922  0.74384489  0.24951716     0.10000
C156        C  0.06426916  0.73293540  0.24959019    -0.16800
C157        C  0.31479162  0.76752996  0.24957004    -0.16000
C158        C  0.34655229  0.75627304  0.24955290     0.08100
C159        C  0.38381589  0.74316842  0.24957764     0.10000
C160        C  0.41562205  0.73196266  0.24964020    -0.16800
C161        C  0.18523634  0.76768265  0.00029152    -0.16000
C162        C  0.15345826  0.75643377  0.00029691     0.08100
C163        C  0.11617985  0.74333263  0.00029345     0.10000
C164        C  0.08436683  0.73212274  0.00027879    -0.16800
C165        C  0.43572252  0.73304378  0.00028557    -0.16000
C166        C  0.40369954  0.74394860  0.00030188     0.08100
C167        C  0.36594378  0.75639200  0.00030534     0.10000
C168        C  0.33388716  0.76725771  0.00029838    -0.16800
C169        C  0.31480391  0.23230677  0.25045916    -0.16000
C170        C  0.34658279  0.24355477  0.25046785     0.08100
C171        C  0.38386205  0.25665507  0.25047421     0.10000
C172        C  0.41567507  0.26786497  0.25047967    -0.16800
C173        C  0.16615335  0.23273327  0.25049846    -0.16000
C174        C  0.13409748  0.24359999  0.25051525     0.08100
C175        C  0.09634257  0.25604462  0.25052199     0.10000
C176        C  0.06431955  0.26694946  0.25052018    -0.16800
C177        C  0.33383477  0.23284028  0.49958078    -0.16000
C178        C  0.36590576  0.24370225  0.49958043     0.08100
C179        C  0.40367457  0.25614554  0.49954974     0.10000
C180        C  0.43570531  0.26705426  0.49949526    -0.16800
C181        C  0.08435266  0.26802204  0.49949602    -0.16000
C182        C  0.11615825  0.25681565  0.49954929     0.08100
C183        C  0.15342160  0.24371085  0.49957909     0.10000
C184        C  0.18518247  0.23245420  0.49957921    -0.16800
C185        C  0.23931720  0.15102372  0.25009993    -0.16000
C186        C  0.23800454  0.12795133  0.25004698     0.08100
C187        C  0.23615065  0.10094717  0.25003607     0.10000
C188        C  0.23493733  0.07787354  0.25004578    -0.16800
C189        C  0.23944486  0.84883985  0.24984745    -0.16000
C190        C  0.23815605  0.87191298  0.24989769     0.08100
C191        C  0.23630952  0.89891776  0.24992794     0.10000
C192        C  0.23508052  0.92199134  0.24993595    -0.16800
C193        C  0.26683285  0.99996055  0.38539547    -0.13900
C194        C  0.23316407  0.99994932  0.36458570    -0.29100
H195        H  0.29618047  0.99996142  0.37197891     0.15100
H196        H  0.20381607  0.99994938  0.37800150     0.15700
C197        C  0.23318806  0.99997418  0.13539207    -0.13900
C198        C  0.26685319  0.00009305  0.11459155    -0.29100
H199        H  0.20383933  0.99990491  0.12196473     0.15100
H200        H  0.29620173  0.00016191  0.12801819     0.15700
C201        C  0.26492284  0.07799661  0.49986722    -0.16000
C202        C  0.26369002  0.10107118  0.99979251     0.08100
C203        C  0.26183286  0.12807443  0.49970176     0.10000
C204        C  0.26053877  0.15114737  0.49964230    -0.16800
C205        C  0.26072234  0.84896651  0.00034327    -0.16000
C206        C  0.26203575  0.87203878  0.00029728     0.08100
C207        C  0.26388897  0.89904110  0.50019801     0.10000
C208        C  0.26510006  0.92211616  0.00011182    -0.16800
O209        O  0.23226132  0.00007322  0.55600872    -0.70400
O210        O  0.23224970  0.99998397  0.94396221    -0.71400
O211        O  0.23200646  0.96165696  0.00000085    -0.60000
O212        O  0.23191768  0.03841148  0.99996642    -0.68400
O213        O  0.29894706  0.03860203  0.99995793    -0.68000
O214        O  0.29903722  0.96155317  0.50002783    -0.59200
O215        O  0.29918437  0.00001549  0.94420058    -0.71700
O216        O  0.29919547  0.00013495  0.55579005    -0.70500
Cu217      Cu  0.22975815  0.00003137  0.99998439     1.04600
Cu218      Cu  0.30143569  0.00007835  0.49999269     1.04300
C219        C  0.26585000  0.00010491  0.57352517     0.95800
C220        C  0.26583537  0.99998644  0.92645665     0.94900
C221        C  0.26544674  0.94958784  0.50003547     0.87100
C222        C  0.26532976  0.05052370  0.99993964     0.93400
O223        O  0.20084758  0.99990347  0.69418213    -0.70400
O224        O  0.20082769  0.99992857  0.80577514    -0.71400
O225        O  0.20099655  0.03843707  0.75001687    -0.60000
O226        O  0.20107056  0.96139027  0.74994340    -0.68400
O227        O  0.26810006  0.96157486  0.74994705    -0.68000
O228        O  0.26802668  0.03832994  0.75005732    -0.59200
O229        O  0.26776229  0.99995533  0.80602284    -0.71700
O230        O  0.26778195  0.99995926  0.69397509    -0.70500
Cu231      Cu  0.19859057  0.99991254  0.74997858     1.04600
Cu232      Cu  0.27026772  0.99995508  0.75000174     1.04300
C233        C  0.23419667  0.99994206  0.67645286     0.95800
C234        C  0.23417381  0.99994384  0.82352379     0.94900
C235        C  0.23458909  0.05039991  0.75004232     0.87100
C236        C  0.23468518  0.94946565  0.74994018     0.93400
C237        C  0.26000281  0.17871272  0.99959721     0.05700
C238        C  0.22327303  0.19198385  0.99958692    -0.10500
C239        C  0.22297411  0.21884452  0.99956924     0.03200
C240        C  0.25948721  0.23240618  0.99955628    -0.09000
C241        C  0.29620914  0.21910860  0.99957112     0.05700
C242        C  0.29640764  0.19228996  0.99958885    -0.08400
H243        H  0.19506398  0.18146142  0.99960168     0.11300
H244        H  0.25932520  0.25318345  0.99954604     0.08800
H245        H  0.32483147  0.18200726  0.99960473     0.08600
C246        C  0.23989327  0.17858624  0.75021902     0.05700
C247        C  0.27664563  0.19184577  0.75027951    -0.10500
C248        C  0.27699091  0.21870578  0.75042676     0.03200
C249        C  0.24050205  0.23227860  0.75051805    -0.09000
C250        C  0.20375735  0.21899209  0.75044726     0.05700
C251        C  0.20351200  0.19217362  0.75029987    -0.08400
H252        H  0.30483517  0.18131530  0.75021200     0.11300
H253        H  0.24070029  0.25305665  0.75062472     0.08800
H254        H  0.17507043  0.18189929  0.75024814     0.08600
C255        C  0.26014130  0.82140183  0.50034273     0.05700
C256        C  0.29652339  0.80781526  0.50032990    -0.10500
C257        C  0.29627998  0.78099672  0.50029248     0.03200
C258        C  0.25953620  0.76770912  0.50026491    -0.09000
C259        C  0.22304632  0.78128100  0.50028906     0.05700
C260        C  0.22338980  0.80814119  0.50032608    -0.08400
H261        H  0.32496511  0.81809066  0.50034497     0.11300
H262        H  0.25933936  0.74693057  0.50023898     0.08800
H263        H  0.19519879  0.81867121  0.50033790     0.08600
C264        C  0.23997629  0.82127578  0.74976472     0.05700
C265        C  0.27670556  0.80800440  0.74972498    -0.10500
C266        C  0.27700410  0.78114381  0.74961869     0.03200
C267        C  0.24049096  0.76758232  0.74955651    -0.09000
C268        C  0.20376924  0.78088008  0.74959127     0.05700
C269        C  0.20357109  0.80769885  0.74969736    -0.08400
H270        H  0.30491490  0.81852672  0.74977168     0.11300
H271        H  0.24065286  0.74680460  0.74947543     0.08800
H272        H  0.17514773  0.81798161  0.74972345     0.08600
C273        C  0.50899279  0.67865014  0.50025434     0.05700
C274        C  0.47274153  0.69237050  0.50025591    -0.10500
C275        C  0.47321877  0.71918270  0.50026243     0.03200
C276        C  0.01007548  0.73234025  0.50026129    -0.09000
C277        C  0.04644864  0.71863956  0.50025974     0.05700
C278        C  0.04587078  0.69177575  0.50025346    -0.08400
H279        H  0.44420655  0.68219915  0.50025836     0.11300
H280        H  0.01044990  0.75311731  0.50027038     0.08800
H281        H  0.07396565  0.68114313  0.50025410     0.08600
C282        C  0.49099105  0.67852009  0.75006251     0.04500
C283        C  0.02724330  0.69225333  0.74994506    -0.10500
C284        C  0.02676852  0.71906455  0.74972340     0.03200
C285        C  0.98991253  0.73220851  0.74962670    -0.09000
C286        C  0.45353765  0.71849500  0.74974846     0.05700
C287        C  0.45411355  0.69163186  0.74996927    -0.08400
H288        H  0.05577768  0.68209249  0.75001033     0.11300
H289        H  0.98953997  0.75298444  0.74945440     0.08800
H290        H  0.42601829  0.68098939  0.75005252     0.08600
C291        C  0.00898427  0.32146940  0.99925873     0.05700
C292        C  0.04586308  0.30835884  0.99930807    -0.10500
C293        C  0.04644142  0.28149520  0.99941529     0.03200
C294        C  0.51006779  0.26778028  0.99946672    -0.09000
C295        C  0.47321065  0.28092300  0.99941379     0.05700
C296        C  0.47273355  0.30773468  0.99930516    -0.08400
H297        H  0.07395722  0.31900258  0.99928315     0.11300
H298        H  0.51044227  0.24700318  0.99955730     0.08800
H299        H  0.44419823  0.31789467  0.99927868     0.08600
C300        C  0.99104080  0.32133762  0.75034224     0.05700
C301        C  0.02729347  0.30761877  0.75040435    -0.10500
C302        C  0.02681885  0.28080670  0.75049805     0.03200
C303        C  0.98996344  0.26764773  0.75053731    -0.09000
C304        C  0.45358901  0.28134688  0.75047567     0.05700
C305        C  0.45416414  0.30821059  0.75038130    -0.08400
H306        H  0.05582765  0.31779110  0.75036825     0.11300
H307        H  0.48959107  0.24687088  0.75060158     0.08800
H308        H  0.42606890  0.31884172  0.75032779     0.08600
O309        O  0.02647960  0.50000340  0.55892397    -0.70400
O310        O  0.04129367  0.50010291  0.94829096    -0.71400
O311        O  0.03428312  0.53840274  0.00376955    -0.60000
O312        O  0.03426439  0.46171203  0.00348502    -0.68400
O313        O  0.46772200  0.46149775  0.49605889    -0.68000
O314        O  0.46774358  0.53861384  0.49633272    -0.59200
O315        O  0.47477156  0.50009630  0.94114959    -0.71700
O316        O  0.46002147  0.50000868  0.55128442    -0.70500
Cu317      Cu  0.03641764  0.50005677  0.00389189     1.04600
Cu318      Cu  0.46522698  0.50005517  0.49594179     1.04300
C319        C  0.99083509  0.49999049  0.57249538     0.95800
C320        C  0.01023039  0.50009992  0.92730910     0.94900
C321        C  0.00115385  0.55052336  0.50007438     0.87100
C322        C  0.00112153  0.44958995  0.99969348     0.93400
O323        O  0.03226553  0.53849876  0.75383492    -0.70400
O324        O  0.03226528  0.46138227  0.75375333    -0.71400
O325        O  0.03997275  0.49992553  0.69870561    -0.60000
O326        O  0.02521206  0.49996316  0.80884402    -0.68400
O327        O  0.45869060  0.49994039  0.80169840    -0.68000
O328        O  0.47351412  0.49991583  0.69106903    -0.59200
O329        O  0.46571692  0.46157900  0.74631368    -0.71700
O330        O  0.46571505  0.53826972  0.74640980    -0.70500
Cu331      Cu  0.03477129  0.49994167  0.75404834     1.04600
Cu332      Cu  0.46357232  0.49992450  0.74609717     1.04300
C333        C  0.99885497  0.55039979  0.75016865     0.95800
C334        C  0.99885773  0.44946469  0.75004516     0.94900
C335        C  0.00915792  0.49992064  0.67749595     0.87100
C336        C  0.98975242  0.49996695  0.82268224     0.93400
C337        C  0.98425952  0.50000673  0.86322489    -0.13900
C338        C  0.01572161  0.50008496  0.88676628    -0.29100
H339        H  0.45360939  0.49997211  0.87389258     0.15100
H340        H  0.04637105  0.50011785  0.87609850     0.15700
C341        C  0.01543308  0.49992852  0.63703597    -0.13900
C342        C  0.98455854  0.49995804  0.61295527    -0.29100
H343        H  0.04628812  0.49992308  0.62687212     0.15100
H344        H  0.45370484  0.49996511  0.62311848     0.15700
C345        C  0.99829877  0.42199193  0.75010628    -0.16000
C346        C  0.49652617  0.39893202  0.75012612     0.08100
C347        C  0.99384959  0.37195431  0.75016337     0.10000
C348        C  0.99195159  0.34889765  0.75023091    -0.16800
C349        C  0.00806733  0.34902886  0.99922787    -0.16000
C350        C  0.50615598  0.37208421  0.99925803     0.08100
C351        C  0.00346926  0.39905854  0.49934782     0.10000
C352        C  0.00168057  0.42211828  0.99947355    -0.16800
C353        C  0.99829101  0.57787164  0.75029998    -0.16000
C354        C  0.99650738  0.60093019  0.75033292     0.08100
C355        C  0.49381452  0.62790570  0.75030076     0.10000
C356        C  0.49190516  0.65096094  0.75022214    -0.16800
C357        C  0.50807894  0.65109003  0.50025296    -0.16000
C358        C  0.00617712  0.62803341  0.50022575     0.08100
C359        C  0.50349582  0.60105585  0.50015675     0.10000
C360        C  0.00171887  0.57799608  0.50009478    -0.16800
C361        C  0.16614008  0.76714798  0.74952140    -0.16000
C362        C  0.13406915  0.75628592  0.74949433     0.08100
C363        C  0.09630056  0.74384227  0.74951961     0.10000
C364        C  0.06427010  0.73293332  0.74959266    -0.16800
C365        C  0.31479238  0.76753280  0.74957145    -0.16000
C366        C  0.34655361  0.75627659  0.74955411     0.08100
C367        C  0.38381728  0.74317224  0.74957887     0.10000
C368        C  0.41562299  0.73196603  0.74964154    -0.16800
C369        C  0.18523526  0.76768175  0.50029031    -0.16000
C370        C  0.15345659  0.75643357  0.50029621     0.08100
C371        C  0.11617750  0.74333320  0.50029340     0.10000
C372        C  0.08436439  0.73212344  0.50027919    -0.16800
C373        C  0.43572001  0.73303949  0.50028486    -0.16000
C374        C  0.40369696  0.74394430  0.50030034     0.08100
C375        C  0.36594177  0.75638852  0.50030314     0.10000
C376        C  0.33388582  0.76725505  0.50029593    -0.16800
C377        C  0.31480294  0.23230392  0.75045745    -0.16000
C378        C  0.34658233  0.24355128  0.75046710     0.08100
C379        C  0.38386171  0.25665138  0.75047420     0.10000
C380        C  0.41567441  0.26786163  0.75048051    -0.16800
C381        C  0.16615244  0.23273494  0.75049623    -0.16000
C382        C  0.13409703  0.24360219  0.75051372     0.08100
C383        C  0.09634223  0.25604689  0.75052155     0.10000
C384        C  0.06431888  0.26695132  0.75052074    -0.16800
C385        C  0.33383819  0.23284078  0.99958233    -0.16000
C386        C  0.36590983  0.24370191  0.99958173     0.08100
C387        C  0.40367923  0.25614436  0.99955008     0.10000
C388        C  0.43571001  0.26705298  0.99949486    -0.16800
C389        C  0.08435727  0.26802534  0.99949444    -0.16000
C390        C  0.11616281  0.25681884  0.99954828     0.08100
C391        C  0.15342543  0.24371309  0.99957871     0.10000
C392        C  0.18518584  0.23245584  0.99957933    -0.16800
C393        C  0.23931086  0.15102330  0.75009820    -0.16000
C394        C  0.23799941  0.12795093  0.75004434     0.08100
C395        C  0.23614929  0.10094678  0.75003181     0.10000
C396        C  0.23493916  0.07787314  0.75004090    -0.16800
C397        C  0.23943955  0.84883997  0.74985278    -0.16000
C398        C  0.23815208  0.87191308  0.74990140     0.08100
C399        C  0.23630913  0.89891791  0.74992926     0.10000
C400        C  0.23508329  0.92199150  0.74993528    -0.16800
C401        C  0.26683645  0.99996183  0.88539599    -0.13900
C402        C  0.23316844  0.99995045  0.86458466    -0.29100
H403        H  0.29618509  0.99996230  0.87198010     0.15100
H404        H  0.20381984  0.99995082  0.87799983     0.15700
C405        C  0.23319349  0.99997283  0.63538947    -0.13900
C406        C  0.26685846  0.00009188  0.61458874    -0.29100
H407        H  0.20384441  0.99990338  0.62196216     0.15100
H408        H  0.29620700  0.00016121  0.62801482     0.15700
C409        C  0.26492485  0.07799784  0.99987043    -0.16000
C410        C  0.26368730  0.10106996  0.49978967     0.08100
C411        C  0.26183600  0.12807563  0.99970372     0.10000
C412        C  0.26054155  0.15114854  0.99964338    -0.16800
C413        C  0.26072259  0.84896487  0.50034215    -0.16000
C414        C  0.26203570  0.87203717  0.50029542     0.08100
C415        C  0.26388904  0.89904268  0.00020062     0.10000
C416        C  0.26510059  0.92211460  0.50010883    -0.16800
O417        O  0.73225811  0.00007475  0.05601017    -0.70400
O418        O  0.73224789  0.99998234  0.44396210    -0.71400
O419        O  0.73200713  0.96165540  0.49999990    -0.60000
O420        O  0.73191711  0.03840984  0.49996526    -0.68400
O421        O  0.79894645  0.03860107  0.49995408    -0.68000
O422        O  0.79903661  0.96155457  0.00003160    -0.59200
O423        O  0.79918275  0.00001425  0.44419809    -0.71700
O424        O  0.79919226  0.00013619  0.05579383    -0.70500
Cu425      Cu  0.72975859  0.00002976  0.49998357     1.04600
Cu426      Cu  0.80143525  0.00007956  0.99999621     1.04300
C427        C  0.76584609  0.00010607  0.07352787     0.95800
C428        C  0.76583288  0.99998504  0.42645569     0.94900
C429        C  0.76544615  0.94958935  0.00003814     0.87100
C430        C  0.76532880  0.05052242  0.49993686     0.93400
O431        O  0.70084241  0.99990449  0.19418505    -0.70400
O432        O  0.70082276  0.99992813  0.30577732    -0.71400
O433        O  0.70099279  0.03843775  0.25002134    -0.60000
O434        O  0.70106640  0.96139010  0.24994566    -0.68400
O435        O  0.76809585  0.96157517  0.24994851    -0.68000
O436        O  0.76802289  0.03832983  0.25006074    -0.59200
O437        O  0.76775740  0.99995477  0.30602440    -0.71700
O438        O  0.76777673  0.99995999  0.19397754    -0.70500
Cu439      Cu  0.69858599  0.99991283  0.24998157     1.04600
Cu440      Cu  0.77026314  0.99995516  0.25000403     1.04300
C441        C  0.73419134  0.99994307  0.17645553     0.95800
C442        C  0.73416900  0.99994305  0.32352541     0.94900
C443        C  0.73458575  0.05040024  0.25004666     0.87100
C444        C  0.73468128  0.94946564  0.24994184     0.93400
C445        C  0.76000021  0.17871165  0.49959663     0.05700
C446        C  0.72327037  0.19198272  0.49958663    -0.10500
C447        C  0.72297114  0.21884343  0.49956870     0.03200
C448        C  0.75948383  0.23240528  0.49955519    -0.09000
C449        C  0.79620589  0.21910789  0.49956992     0.05700
C450        C  0.79640481  0.19228911  0.49958787    -0.08400
H451        H  0.69506182  0.18146045  0.49960164     0.11300
H452        H  0.75932140  0.25318321  0.49954480     0.08800
H453        H  0.82482885  0.18200661  0.49960376     0.08600
C454        C  0.73989814  0.17858662  0.25022030     0.05700
C455        C  0.77664957  0.19184729  0.25028080    -0.10500
C456        C  0.77699298  0.21870729  0.25042873     0.03200
C457        C  0.74050296  0.23227902  0.25052061    -0.09000
C458        C  0.70375914  0.21899139  0.25044956     0.05700
C459        C  0.70351593  0.19217300  0.25030141    -0.08400
H460        H  0.80484079  0.18131734  0.25021363     0.11300
H461        H  0.74069970  0.25305683  0.25062784     0.08800
H462        H  0.67507431  0.18189750  0.25024917     0.08600
C463        C  0.76014128  0.82140350  0.00034377     0.05700
C464        C  0.79652371  0.80781733  0.00033146    -0.10500
C465        C  0.79628087  0.78099888  0.00029451     0.03200
C466        C  0.75953735  0.76771091  0.00026700    -0.09000
C467        C  0.72304705  0.78128249  0.00029042     0.05700
C468        C  0.72338996  0.80814264  0.00032695    -0.08400
H469        H  0.82496453  0.81809281  0.00034663     0.11300
H470        H  0.75934098  0.74693319  0.00024116     0.08800
H471        H  0.69519907  0.81867233  0.00033863     0.08600
C472        C  0.73997939  0.82127553  0.24975960     0.05700
C473        C  0.77670785  0.80800283  0.24972082    -0.10500
C474        C  0.77700430  0.78114220  0.24961632     0.03200
C475        C  0.74049012  0.76758200  0.24955517    -0.09000
C476        C  0.70376928  0.78088099  0.24958862     0.05700
C477        C  0.70357332  0.80769971  0.24969291    -0.08400
H478        H  0.80491752  0.81852395  0.24976677     0.11300
H479        H  0.74065039  0.74680415  0.24947544     0.08800
H480        H  0.67514922  0.81798394  0.24971808     0.08600
C481        C  0.00899046  0.67865175  0.00025480     0.05700
C482        C  0.97274040  0.69237353  0.00025648    -0.10500
C483        C  0.97322019  0.71918575  0.00026265     0.03200
C484        C  0.51007796  0.73234198  0.00026083    -0.09000
C485        C  0.54644988  0.71863999  0.00025927     0.05700
C486        C  0.54586959  0.69177609  0.00025347    -0.08400
H487        H  0.94420468  0.68220346  0.00025970     0.11300
H488        H  0.51045422  0.75311902  0.00026973     0.08800
H489        H  0.57396301  0.68114268  0.00025426     0.08600
C490        C  0.99099519  0.67851952  0.25006411     0.04500
C491        C  0.52724595  0.69225413  0.24994529    -0.10500
C492        C  0.52676872  0.71906525  0.24972164     0.03200
C493        C  0.48991153  0.73220775  0.24962413    -0.09000
C494        C  0.95353786  0.71849291  0.24974726     0.05700
C495        C  0.95411631  0.69162981  0.24997014    -0.08400
H496        H  0.55578130  0.68209440  0.25001115     0.11300
H497        H  0.48953712  0.75298358  0.24945014     0.08800
H498        H  0.92602200  0.68098619  0.25005448     0.08600
C499        C  0.50898428  0.32146833  0.49925937     0.05700
C500        C  0.54586183  0.30835662  0.49930909    -0.10500
C501        C  0.54643789  0.28149303  0.49941683     0.03200
C502        C  0.01006294  0.26777929  0.49946841    -0.09000
C503        C  0.97320692  0.28092333  0.49941489     0.05700
C504        C  0.97273219  0.30773492  0.49930568    -0.08400
H505        H  0.57395657  0.31899943  0.49928435     0.11300
H506        H  0.01043544  0.24700290  0.49955918     0.08800
H507        H  0.94419746  0.31789599  0.49927882     0.08600
C508        C  0.49104624  0.32133831  0.25034253     0.05700
C509        C  0.52729762  0.30761812  0.25040429    -0.10500
C510        C  0.52682056  0.28080605  0.25049707     0.03200
C511        C  0.48996401  0.26764848  0.25053570    -0.09000
C512        C  0.95359061  0.28134896  0.25047449     0.05700
C513        C  0.95416822  0.30821261  0.25038113    -0.08400
H514        H  0.55583208  0.31778924  0.25036928     0.11300
H515        H  0.98958966  0.24687161  0.25059886     0.08800
H516        H  0.92607289  0.31884508  0.25032795     0.08600
O517        O  0.52648227  0.50000485  0.05892030    -0.70400
O518        O  0.54131160  0.50010113  0.44829648    -0.71400
O519        O  0.53429144  0.53840102  0.50377393    -0.60000
O520        O  0.53427192  0.46171055  0.50348983    -0.68400
O521        O  0.96771330  0.46149883  0.99606330    -0.68000
O522        O  0.96773405  0.53861521  0.99633717    -0.59200
O523        O  0.97479068  0.50009501  0.44114681    -0.71700
O524        O  0.96002267  0.50000988  0.05129024    -0.70500
Cu525      Cu  0.53642547  0.50005516  0.50389695     1.04600
Cu526      Cu  0.96521790  0.50005639  0.99594654     1.04300
C527        C  0.49084013  0.49999180  0.07249679     0.95800
C528        C  0.51025138  0.50009844  0.42731073     0.94900
C529        C  0.50114473  0.55052495  0.00007435     0.87100
C530        C  0.50112949  0.44958868  0.49969376     0.93400
O531        O  0.53228991  0.53849902  0.25383428    -0.70400
O532        O  0.53229008  0.46138224  0.25375135    -0.71400
O533        O  0.53999387  0.49992611  0.19870302    -0.60000
O534        O  0.52523992  0.49996277  0.30884366    -0.68400
O535        O  0.95871828  0.49993986  0.30169963    -0.68000
O536        O  0.97353464  0.49991625  0.19107093    -0.59200
O537        O  0.96574150  0.46157917  0.24631478    -0.71700
O538        O  0.96573912  0.53826949  0.24641219    -0.70500
Cu539      Cu  0.53479616  0.49994175  0.25404680     1.04600
Cu540      Cu  0.96359677  0.49992445  0.24609890     1.04300
C541        C  0.49887882  0.55039979  0.25017005     0.95800
C542        C  0.49888219  0.44946476  0.25004489     0.94900
C543        C  0.50917740  0.49992122  0.17749533     0.87100
C544        C  0.48978055  0.49996620  0.32268271     0.93400
C545        C  0.48428708  0.50000561  0.36322513    -0.13900
C546        C  0.51574744  0.50008351  0.38676840    -0.29100
H547        H  0.95363711  0.49997065  0.37389110     0.15100
H548        H  0.54639754  0.50011637  0.37610286     0.15700
C549        C  0.51544835  0.49992951  0.13703464    -0.13900
C550        C  0.48457045  0.49995918  0.11295749    -0.29100
H551        H  0.54630256  0.49992442  0.12686729     0.15100
H552        H  0.95371719  0.49996589  0.12312469     0.15700
C553        C  0.49832214  0.42199201  0.25010667    -0.16000
C554        C  0.99654568  0.39893225  0.25012707     0.08100
C555        C  0.49386293  0.37195483  0.25016475     0.10000
C556        C  0.49196023  0.34889834  0.25023204    -0.16800
C557        C  0.50806979  0.34902772  0.49922781    -0.16000
C558        C  0.00616085  0.37208306  0.49925797     0.08100
C559        C  0.50346257  0.39905976  0.99934794     0.10000
C560        C  0.50168822  0.42211704  0.49947360    -0.16800
C561        C  0.49831354  0.57787161  0.25030280    -0.16000
C562        C  0.49652584  0.60093003  0.25033685     0.08100
C563        C  0.99382649  0.62790530  0.25030482     0.10000
C564        C  0.99191262  0.65096041  0.25022547    -0.16800
C565        C  0.00807362  0.65109164  0.00025395    -0.16000
C566        C  0.50616971  0.62803509  0.00022674     0.08100
C567        C  0.00348659  0.60105759  0.00015769     0.10000
C568        C  0.50170934  0.57799778  0.00009538    -0.16800
C569        C  0.66613922  0.76714999  0.24951926    -0.16000
C570        C  0.63406784  0.75628847  0.24949225     0.08100
C571        C  0.59629921  0.74384486  0.24951716     0.10000
C572        C  0.56426914  0.73293540  0.24959019    -0.16800
C573        C  0.81479164  0.76752995  0.24957004    -0.16000
C574        C  0.84655232  0.75627305  0.24955290     0.08100
C575        C  0.88381590  0.74316844  0.24957764     0.10000
C576        C  0.91562204  0.73196267  0.24964020    -0.16800
C577        C  0.68523631  0.76768269  0.00029152    -0.16000
C578        C  0.65345826  0.75643376  0.00029691     0.08100
C579        C  0.61617987  0.74333260  0.00029345     0.10000
C580        C  0.58436684  0.73212271  0.00027879    -0.16800
C581        C  0.93572247  0.73304376  0.00028557    -0.16000
C582        C  0.90369951  0.74394862  0.00030188     0.08100
C583        C  0.86594376  0.75639198  0.00030534     0.10000
C584        C  0.83388718  0.76725769  0.00029838    -0.16800
C585        C  0.81480394  0.23230677  0.25045916    -0.16000
C586        C  0.84658278  0.24355480  0.25046785     0.08100
C587        C  0.88386197  0.25665505  0.25047421     0.10000
C588        C  0.91567498  0.26786491  0.25047967    -0.16800
C589        C  0.66615325  0.23273321  0.25049846    -0.16000
C590        C  0.63409750  0.24360004  0.25051525     0.08100
C591        C  0.59634258  0.25604460  0.25052199     0.10000
C592        C  0.56431958  0.26694948  0.25052018    -0.16800
C593        C  0.83383471  0.23284028  0.49958078    -0.16000
C594        C  0.86590569  0.24370226  0.49958043     0.08100
C595        C  0.90367456  0.25614556  0.49954974     0.10000
C596        C  0.93570531  0.26705428  0.49949526    -0.16800
C597        C  0.58435266  0.26802207  0.49949602    -0.16000
C598        C  0.61615826  0.25681568  0.49954929     0.08100
C599        C  0.65342162  0.24371082  0.49957909     0.10000
C600        C  0.68518254  0.23245420  0.49957921    -0.16800
C601        C  0.73931713  0.15102368  0.25009993    -0.16000
C602        C  0.73800460  0.12795129  0.25004698     0.08100
C603        C  0.73615070  0.10094715  0.25003607     0.10000
C604        C  0.73493726  0.07787353  0.25004578    -0.16800
C605        C  0.73944471  0.84883985  0.24984745    -0.16000
C606        C  0.73815595  0.87191298  0.24989769     0.08100
C607        C  0.73630943  0.89891776  0.24992794     0.10000
C608        C  0.73508046  0.92199134  0.24993595    -0.16800
C609        C  0.76683263  0.99996055  0.38539554    -0.13900
C610        C  0.73316382  0.99994932  0.36458573    -0.29100
H611        H  0.79617968  0.99996142  0.37197921     0.15100
H612        H  0.70381576  0.99994938  0.37800145     0.15700
C613        C  0.73318812  0.99997418  0.13539207    -0.13900
C614        C  0.76685323  0.00009305  0.11459154    -0.29100
H615        H  0.70383929  0.99990491  0.12196470     0.15100
H616        H  0.79620198  0.00016192  0.12801825     0.15700
C617        C  0.76492291  0.07799661  0.49986722    -0.16000
C618        C  0.76369005  0.10107118  0.99979251     0.08100
C619        C  0.76183293  0.12807443  0.49970176     0.10000
C620        C  0.76053884  0.15114738  0.49964230    -0.16800
C621        C  0.76072234  0.84896651  0.00034327    -0.16000
C622        C  0.76203565  0.87203879  0.00029728     0.08100
C623        C  0.76388902  0.89904110  0.50019801     0.10000
C624        C  0.76510015  0.92211616  0.00011182    -0.16800
O625        O  0.73226140  0.00007322  0.55600873    -0.70400
O626        O  0.73224967  0.99998397  0.94396230    -0.71400
O627        O  0.73200655  0.96165696  0.00000085    -0.60000
O628        O  0.73191757  0.03841147  0.99996642    -0.68400
O629        O  0.79894710  0.03860205  0.99995793    -0.68000
O630        O  0.79903728  0.96155315  0.50002782    -0.59200
O631        O  0.79918435  0.00001549  0.94420055    -0.71700
O632        O  0.79919555  0.00013495  0.55579005    -0.70500
Cu633      Cu  0.72975816  0.00003137  0.99998442     1.04600
Cu634      Cu  0.80143573  0.00007835  0.49999266     1.04300
C635        C  0.76585008  0.00010491  0.57352518     0.95800
C636        C  0.76583523  0.99998644  0.92645673     0.94900
C637        C  0.76544677  0.94958784  0.50003547     0.87100
C638        C  0.76532970  0.05052369  0.99993964     0.93400
O639        O  0.70084764  0.99990346  0.69418213    -0.70400
O640        O  0.70082781  0.99992857  0.80577514    -0.71400
O641        O  0.70099667  0.03843706  0.75001687    -0.60000
O642        O  0.70107062  0.96139027  0.74994339    -0.68400
O643        O  0.76810012  0.96157487  0.74994705    -0.68000
O644        O  0.76802679  0.03832994  0.75005733    -0.59200
O645        O  0.76776243  0.99995533  0.80602279    -0.71700
O646        O  0.76778186  0.99995926  0.69397510    -0.70500
Cu647      Cu  0.69859060  0.99991254  0.74997856     1.04600
Cu648      Cu  0.77026772  0.99995508  0.75000174     1.04300
C649        C  0.73419664  0.99994206  0.67645284     0.95800
C650        C  0.73417406  0.99994384  0.82352372     0.94900
C651        C  0.73458919  0.05039991  0.75004232     0.87100
C652        C  0.73468525  0.94946565  0.74994018     0.93400
C653        C  0.76000305  0.17871268  0.99959721     0.05700
C654        C  0.72327315  0.19198384  0.99958692    -0.10500
C655        C  0.72297416  0.21884449  0.99956924     0.03200
C656        C  0.75948722  0.23240614  0.99955628    -0.09000
C657        C  0.79620926  0.21910853  0.99957112     0.05700
C658        C  0.79640785  0.19228993  0.99958885    -0.08400
H659        H  0.69506408  0.18146141  0.99960168     0.11300
H660        H  0.75932515  0.25318342  0.99954604     0.08800
H661        H  0.82483246  0.18200704  0.99960473     0.08600
C662        C  0.73989351  0.17858620  0.75021901     0.05700
C663        C  0.77664584  0.19184573  0.75027948    -0.10500
C664        C  0.77699107  0.21870572  0.75042675     0.03200
C665        C  0.74050208  0.23227856  0.75051806    -0.09000
C666        C  0.70375741  0.21899207  0.75044726     0.05700
C667        C  0.70351211  0.19217361  0.75029988    -0.08400
H668        H  0.80483619  0.18131506  0.75021229     0.11300
H669        H  0.74070032  0.25305661  0.75062473     0.08800
H670        H  0.67507053  0.18189929  0.75024816     0.08600
C671        C  0.76014111  0.82140178  0.50034273     0.05700
C672        C  0.79652330  0.80781525  0.50032990    -0.10500
C673        C  0.79627982  0.78099666  0.50029248     0.03200
C674        C  0.75953606  0.76770907  0.50026491    -0.09000
C675        C  0.72304617  0.78128095  0.50028906     0.05700
C676        C  0.72338963  0.80814115  0.50032608    -0.08400
H677        H  0.82496423  0.81809041  0.50034497     0.11300
H678        H  0.75933929  0.74693054  0.50023898     0.08800
H679        H  0.69519874  0.81867111  0.50033790     0.08600
C680        C  0.73997609  0.82127581  0.74976472     0.05700
C681        C  0.77670542  0.80800438  0.74972498    -0.10500
C682        C  0.77700405  0.78114381  0.74961869     0.03200
C683        C  0.74049086  0.76758236  0.74955651    -0.09000
C684        C  0.70376905  0.78088015  0.74959127     0.05700
C685        C  0.70357096  0.80769888  0.74969736    -0.08400
H686        H  0.80491484  0.81852674  0.74977169     0.11300
H687        H  0.74065268  0.74680464  0.74947543     0.08800
H688        H  0.67514669  0.81798197  0.74972346     0.08600
C689        C  0.00899280  0.67865016  0.50025434     0.05700
C690        C  0.97274148  0.69237053  0.50025591    -0.10500
C691        C  0.97321878  0.71918274  0.50026243     0.03200
C692        C  0.51007539  0.73234024  0.50026129    -0.09000
C693        C  0.54644858  0.71863958  0.50025974     0.05700
C694        C  0.54587071  0.69177576  0.50025346    -0.08400
H695        H  0.94420651  0.68219921  0.50025836     0.11300
H696        H  0.51044970  0.75311732  0.50027038     0.08800
H697        H  0.57396555  0.68114315  0.50025410     0.08600
C698        C  0.99099124  0.67852015  0.75006251     0.04500
C699        C  0.52724319  0.69225327  0.74994506    -0.10500
C700        C  0.52676851  0.71906449  0.74972340     0.03200
C701        C  0.48991257  0.73220845  0.74962670    -0.09000
C702        C  0.95353769  0.71849504  0.74974845     0.05700
C703        C  0.95411366  0.69163188  0.74996927    -0.08400
H704        H  0.55577764  0.68209240  0.75001033     0.11300
H705        H  0.48954015  0.75298438  0.74945440     0.08800
H706        H  0.92601915  0.68098958  0.75005252     0.08600
C707        C  0.50898435  0.32146942  0.99925873     0.05700
C708        C  0.54586308  0.30835887  0.99930807    -0.10500
C709        C  0.54644149  0.28149524  0.99941528     0.03200
C710        C  0.01006764  0.26778028  0.99946672    -0.09000
C711        C  0.97321056  0.28092305  0.99941379     0.05700
C712        C  0.97273345  0.30773470  0.99930516    -0.08400
H713        H  0.57395735  0.31900269  0.99928315     0.11300
H714        H  0.01044183  0.24700320  0.99955730     0.08800
H715        H  0.94419796  0.31789474  0.99927868     0.08600
C716        C  0.49104085  0.32133763  0.75034225     0.05700
C717        C  0.52729346  0.30761876  0.75040444    -0.10500
C718        C  0.52681881  0.28080670  0.75049804     0.03200
C719        C  0.48996343  0.26764774  0.75053740    -0.09000
C720        C  0.95358896  0.28134685  0.75047566     0.05700
C721        C  0.95416404  0.30821056  0.75038129    -0.08400
H722        H  0.55582771  0.31779109  0.75036824     0.11300
H723        H  0.98959106  0.24687089  0.75060158     0.08800
H724        H  0.92606873  0.31884167  0.75032781     0.08600
O725        O  0.52647979  0.50000340  0.55892386    -0.70400
O726        O  0.54129368  0.50010291  0.94829097    -0.71400
O727        O  0.53428310  0.53840273  0.00376954    -0.60000
O728        O  0.53426442  0.46171203  0.00348503    -0.68400
O729        O  0.96772200  0.46149777  0.49605890    -0.68000
O730        O  0.96774361  0.53861383  0.49633272    -0.59200
O731        O  0.97477165  0.50009629  0.94114959    -0.71700
O732        O  0.96002140  0.50000868  0.55128434    -0.70500
Cu733      Cu  0.53641764  0.50005677  0.00389190     1.04600
Cu734      Cu  0.96522696  0.50005516  0.49594178     1.04300
C735        C  0.49083538  0.49999049  0.57249532     0.95800
C736        C  0.51023033  0.50009992  0.92730914     0.94900
C737        C  0.50115380  0.55052336  0.50007438     0.87100
C738        C  0.50112157  0.44958995  0.99969347     0.93400
O739        O  0.53226546  0.53849876  0.75383493    -0.70400
O740        O  0.53226525  0.46138226  0.75375332    -0.71400
O741        O  0.53997274  0.49992553  0.69870568    -0.60000
O742        O  0.52521202  0.49996315  0.80884405    -0.68400
O743        O  0.95869062  0.49994039  0.80169837    -0.68000
O744        O  0.97351407  0.49991583  0.69106893    -0.59200
O745        O  0.96571692  0.46157899  0.74631351    -0.71700
O746        O  0.96571508  0.53826972  0.74640961    -0.70500
Cu747      Cu  0.53477128  0.49994166  0.75404837     1.04600
Cu748      Cu  0.96357230  0.49992450  0.74609711     1.04300
C749        C  0.49885493  0.55039979  0.75016880     0.95800
C750        C  0.49885772  0.44946469  0.75004519     0.94900
C751        C  0.50915793  0.49992064  0.67749602     0.87100
C752        C  0.48975229  0.49996695  0.82268231     0.93400
C753        C  0.48425930  0.50000673  0.86322495    -0.13900
C754        C  0.51572125  0.50008496  0.88676638    -0.29100
H755        H  0.95361043  0.49997211  0.87389234     0.15100
H756        H  0.54637096  0.50011785  0.87609846     0.15700
C757        C  0.51543341  0.49992852  0.63703602    -0.13900
C758        C  0.48455880  0.49995804  0.61295525    -0.29100
H759        H  0.54628819  0.49992308  0.62687241     0.15100
H760        H  0.95370353  0.49996511  0.62311886     0.15700
C761        C  0.49829873  0.42199193  0.75010627    -0.16000
C762        C  0.99652624  0.39893201  0.75012612     0.08100
C763        C  0.49384964  0.37195431  0.75016337     0.10000
C764        C  0.49195151  0.34889766  0.75023089    -0.16800
C765        C  0.50806729  0.34902886  0.99922787    -0.16000
C766        C  0.00615608  0.37208420  0.99925803     0.08100
C767        C  0.50346934  0.39905854  0.49934782     0.10000
C768        C  0.50168043  0.42211828  0.99947356    -0.16800
C769        C  0.49829115  0.57787164  0.75029998    -0.16000
C770        C  0.49650737  0.60093019  0.75033306     0.08100
C771        C  0.99381445  0.62790570  0.75030076     0.10000
C772        C  0.99190520  0.65096096  0.75022215    -0.16800
C773        C  0.00807892  0.65109003  0.50025296    -0.16000
C774        C  0.50617719  0.62803341  0.50022575     0.08100
C775        C  0.00349574  0.60105585  0.50015675     0.10000
C776        C  0.50171889  0.57799609  0.50009477    -0.16800
C777        C  0.66614002  0.76714797  0.74952140    -0.16000
C778        C  0.63406911  0.75628592  0.74949433     0.08100
C779        C  0.59630061  0.74384227  0.74951961     0.10000
C780        C  0.56427014  0.73293331  0.74959266    -0.16800
C781        C  0.81479241  0.76753280  0.74957145    -0.16000
C782        C  0.84655356  0.75627654  0.74955411     0.08100
C783        C  0.88381724  0.74317225  0.74957887     0.10000
C784        C  0.91562287  0.73196597  0.74964154    -0.16800
C785        C  0.68523519  0.76768173  0.50029031    -0.16000
C786        C  0.65345656  0.75643359  0.50029621     0.08100
C787        C  0.61617750  0.74333328  0.50029340     0.10000
C788        C  0.58436443  0.73212347  0.50027919    -0.16800
C789        C  0.93571999  0.73303951  0.50028486    -0.16000
C790        C  0.90369692  0.74394428  0.50030034     0.08100
C791        C  0.86594180  0.75638854  0.50030314     0.10000
C792        C  0.83388582  0.76725505  0.50029593    -0.16800
C793        C  0.81480299  0.23230397  0.75045745    -0.16000
C794        C  0.84658241  0.24355129  0.75046710     0.08100
C795        C  0.88386171  0.25665140  0.75047421     0.10000
C796        C  0.91567441  0.26786161  0.75048053    -0.16800
C797        C  0.66615249  0.23273490  0.75049623    -0.16000
C798        C  0.63409710  0.24360218  0.75051370     0.08100
C799        C  0.59634221  0.25604687  0.75052155     0.10000
C800        C  0.56431884  0.26695132  0.75052084    -0.16800
C801        C  0.83383823  0.23284075  0.99958233    -0.16000
C802        C  0.86590980  0.24370197  0.99958173     0.08100
C803        C  0.90367925  0.25614441  0.99955008     0.10000
C804        C  0.93571001  0.26705303  0.99949486    -0.16800
C805        C  0.58435731  0.26802538  0.99949444    -0.16000
C806        C  0.61616285  0.25681886  0.99954828     0.08100
C807        C  0.65342547  0.24371310  0.99957871     0.10000
C808        C  0.68518589  0.23245584  0.99957933    -0.16800
C809        C  0.73931092  0.15102329  0.75009820    -0.16000
C810        C  0.73799934  0.12795093  0.75004433     0.08100
C811        C  0.73614929  0.10094678  0.75003181     0.10000
C812        C  0.73493906  0.07787315  0.75004090    -0.16800
C813        C  0.73943952  0.84883998  0.74985278    -0.16000
C814        C  0.73815215  0.87191309  0.74990140     0.08100
C815        C  0.73630920  0.89891791  0.74992926     0.10000
C816        C  0.73508335  0.92199150  0.74993528    -0.16800
C817        C  0.76683659  0.99996183  0.88539600    -0.13900
C818        C  0.73316837  0.99995045  0.86458466    -0.29100
H819        H  0.79618414  0.99996230  0.87198067     0.15100
H820        H  0.70382092  0.99995082  0.87799923     0.15700
C821        C  0.73319350  0.99997283  0.63538946    -0.13900
C822        C  0.76685848  0.00009188  0.61458876    -0.29100
H823        H  0.70384436  0.99990338  0.62196210     0.15100
H824        H  0.79620703  0.00016121  0.62801489     0.15700
C825        C  0.76492469  0.07799783  0.99987043    -0.16000
C826        C  0.76368737  0.10106996  0.49978967     0.08100
C827        C  0.76183593  0.12807562  0.99970372     0.10000
C828        C  0.76054162  0.15114853  0.99964338    -0.16800
C829        C  0.76072248  0.84896486  0.50034215    -0.16000
C830        C  0.76203560  0.87203717  0.50029542     0.08100
C831        C  0.76388896  0.89904268  0.00020062     0.10000
C832        C  0.76510053  0.92211461  0.50010883    -0.16800
loop_ 
_geom_bond_atom_site_label_1 
_geom_bond_atom_site_label_2 
_geom_bond_distance 
_geom_bond_site_symmetry_2 
_ccdc_geom_bond_type 
O1           C11   1.280       .  A
O1         Cu217   2.019   1_554  S
O2           C12   1.280       .  A
O2           Cu9   2.019   1_565  S
O3          C221   1.275       .  A
O3           Cu9   2.004   1_565  S
O4           C14   1.275       .  A
O4           Cu9   2.004       .  S
O5           C14   1.277       .  A
O5         Cu218   2.012       .  S
O6           C13   1.277       .  A
O6          Cu10   2.012   1_564  S
O7           C12   1.277   1_545  A
O7         Cu218   2.010       .  S
O8           C11   1.277       .  A
O8          Cu10   2.010   1_554  S
Cu9         O209   2.019       .  S
Cu9        Cu218   2.377       .  S
Cu10        O213   2.012       .  S
Cu10        O215   2.010       .  S
Cu10       Cu217   2.377       .  S
C11         C198   1.479       .  S
C12         C193   1.479       .  S
C13         O211   1.275       .  A
C13         C208   1.434       .  S
C14         C201   1.434       .  S
O15          C25   1.277       .  A
O15         Cu23   2.010       .  S
O16          C26   1.277       .  A
O16         Cu23   2.010       .  S
O17          C27   1.277       .  A
O17         Cu23   2.012   1_545  S
O18          C28   1.277       .  A
O18         Cu23   2.012       .  S
O19          C28   1.275       .  A
O19         Cu24   2.004       .  S
O20          C27   1.275       .  A
O20         Cu24   2.004   1_545  S
O21          C26   1.280       .  A
O21         Cu24   2.019       .  S
O22          C25   1.280       .  A
O22         Cu24   2.019       .  S
Cu23        Cu24   2.377       .  S
C25         C197   1.479       .  S
C26         C194   1.479       .  S
C27         C188   1.434       .  S
C28         C192   1.434       .  S
C29         C204   1.439       .  S
C29          C30   1.401       .  A
C29          C34   1.400       .  A
C30          C31   1.402       .  A
C30          H35   1.085       .  S
C31         C184   1.441       .  S
C31          C32   1.402       .  A
C32          C33   1.402       .  A
C32          H36   1.084       .  S
C33         C177   1.439       .  S
C33          C34   1.400       .  A
C34          H37   1.085       .  S
C38         C185   1.439       .  S
C38          C39   1.401       .  A
C38          C43   1.400       .  A
C39          C40   1.402       .  A
C39          H44   1.085       .  S
C40         C169   1.441       .  S
C40          C41   1.402       .  A
C41          C42   1.402       .  A
C41          H45   1.084       .  S
C42         C173   1.439       .  S
C42          C43   1.400       .  A
C43          H46   1.085       .  S
C47         C205   1.439       .  S
C47          C48   1.400       .  A
C47          C52   1.401       .  A
C48          C49   1.400       .  A
C48          H53   1.085       .  S
C49         C168   1.439       .  S
C49          C50   1.402       .  A
C50          C51   1.402       .  A
C50          H54   1.084       .  S
C51         C161   1.441       .  S
C51          C52   1.402       .  A
C52          H55   1.085       .  S
C56         C189   1.439       .  S
C56          C57   1.401       .  A
C56          C61   1.400       .  A
C57          C58   1.402       .  A
C57          H62   1.085       .  S
C58         C157   1.441       .  S
C58          C59   1.402       .  A
C59          C60   1.402       .  A
C59          H63   1.084       .  S
C60         C153   1.439       .  S
C60          C61   1.400       .  A
C61          H64   1.085       .  S
C65         C149   1.439       .  S
C65          C66   1.399       .  A
C65         C486   1.402       .  A
C66          C67   1.400       .  A
C66          H71   1.085       .  S
C67         C165   1.439       .  S
C67         C484   1.402       .  A
C68          C69   1.402       .  A
C68         C483   1.402   1_455  A
C68          H72   1.084       .  S
C69         C164   1.441       .  S
C69          C70   1.402       .  A
C70         C481   1.402       .  A
C70          H73   1.085       .  S
C74         C148   1.439       .  S
C74          C79   1.402       .  A
C74         C491   1.399       .  A
C75          C76   1.399       .  A
C75         C490   1.399   1_455  A
C75          H80   1.085       .  S
C76         C156   1.439       .  S
C76          C77   1.402   1_455  A
C77         C494   1.402       .  A
C77          H81   1.084       .  S
C78         C160   1.441       .  S
C78          C79   1.402       .  A
C78         C493   1.402       .  A
C79          H82   1.085       .  S
C83         C141   1.439       .  S
C83          C84   1.402       .  A
C83         C504   1.399   1_455  A
C84          C85   1.402       .  A
C84          H89   1.085       .  S
C85         C181   1.441       .  S
C85         C502   1.402       .  A
C86          C87   1.402       .  A
C86         C501   1.402       .  A
C86          H90   1.084       .  S
C87         C180   1.439       .  S
C87          C88   1.399       .  A
C88         C499   1.399       .  A
C88          H91   1.085       .  S
C92         C140   1.439       .  S
C92          C93   1.399   1_655  A
C92         C513   1.402       .  A
C93          C94   1.400       .  A
C93          H98   1.085       .  S
C94         C176   1.439       .  S
C94          C95   1.402   1_455  A
C95         C512   1.402       .  A
C95         H515   1.084       .  S
C96         C172   1.441       .  S
C96          C97   1.402       .  A
C96         C511   1.402       .  A
C97         C508   1.402       .  A
C97         H100   1.085       .  S
H99         C511   1.084       .  S
O101        C111   1.279   1_455  A
O101       Cu317   2.009       .  S
O102        C112   1.277       .  A
O102       Cu109   2.009       .  S
O103        C321   1.275       .  A
O103       Cu109   2.003       .  S
O104        C114   1.275       .  A
O104       Cu109   2.003       .  S
O105        C738   1.277       .  A
O105       Cu110   2.014       .  S
O106        C529   1.277   1_556  A
O106       Cu110   2.014       .  S
O107        C528   1.277       .  A
O107       Cu318   1.998       .  S
O108        C527   1.276       .  A
O108       Cu110   2.000   1_554  S
Cu109       O309   2.009       .  S
Cu109      Cu734   2.378   1_455  S
Cu110       O315   1.998       .  S
Cu110      Cu733   2.378   1_556  S
C111        O524   1.276       .  A
C111        C134   1.472       .  S
C112        O523   1.277   1_455  A
C112        C130   1.471       .  S
C113        O311   1.275       .  A
C113        O522   1.277   1_454  A
C113        C152   1.434       .  S
C114        O729   1.277   1_455  A
C114        C144   1.434       .  S
O115        C125   1.277   1_455  A
O115       Cu123   2.014       .  S
O116        C126   1.277   1_455  A
O116       Cu123   2.014       .  S
O117        C127   1.276       .  A
O117       Cu123   2.000       .  S
O118        C128   1.277   1_455  A
O118       Cu123   1.998       .  S
O119        C544   1.277       .  A
O119       Cu124   2.008       .  S
O120        C543   1.279       .  A
O120       Cu124   2.009       .  S
O121        C542   1.275       .  A
O121       Cu124   2.003       .  S
O122        C541   1.275       .  A
O122       Cu124   2.003       .  S
Cu123      Cu540   2.378   1_455  S
Cu124      Cu539   2.378       .  S
C125        O538   1.275       .  A
C125        C145   1.434       .  S
C126        O537   1.275       .  A
C126        C137   1.434       .  S
C127        O536   1.279   1_455  A
C127        C133   1.472       .  S
C128        O535   1.277       .  A
C128        C129   1.471       .  S
C129        C130   1.344   1_655  D
C129        H547   1.087       .  S
C130        H132   1.087       .  S
H131        C545   1.087       .  S
C133        C134   1.341   1_455  D
C133        H135   1.087       .  S
C134        H552   1.087       .  S
H136        C550   1.087       .  S
C137        C554   1.205       .  T
C138        C553   1.205       .  T
C138        C555   1.411       .  S
C139        C140   1.205       .  T
C139        C554   1.411       .  S
C141        C558   1.205       .  T
C142        C557   1.205       .  T
C142        C767   1.411       .  S
C143        C352   1.205       .  T
C143        C766   1.411       .  S
C144        C351   1.205       .  T
C145        C146   1.205       .  T
C146        C563   1.411       .  S
C147        C148   1.205       .  T
C147        C562   1.411       .  S
C149        C566   1.205       .  T
C150        C565   1.205       .  T
C150        C567   1.411       .  S
C151        C568   1.205       .  T
C151        C566   1.411       .  S
C152        C567   1.205       .  T
C153        C154   1.205       .  T
C154        C155   1.411       .  S
C155        C156   1.205       .  T
C157        C158   1.206       .  T
C158        C159   1.413       .  S
C159        C160   1.206       .  T
C161        C162   1.206       .  T
C162        C163   1.412       .  S
C163        C164   1.206       .  T
C165        C166   1.205       .  T
C166        C167   1.411       .  S
C167        C168   1.205       .  T
C169        C170   1.206       .  T
C170        C171   1.412       .  S
C171        C172   1.206       .  T
C173        C174   1.205       .  T
C174        C175   1.411       .  S
C175        C176   1.205       .  T
C177        C178   1.205       .  T
C178        C179   1.411       .  S
C179        C180   1.205       .  T
C181        C182   1.206       .  T
C182        C183   1.413       .  S
C183        C184   1.206       .  T
C185        C186   1.205       .  T
C186        C187   1.411       .  S
C187        C188   1.205       .  T
C189        C190   1.205       .  T
C190        C191   1.411       .  S
C191        C192   1.205       .  T
C193        C194   1.344       .  D
C193        H195   1.087       .  S
C194        H196   1.087       .  S
C197        C198   1.344   1_565  D
C197        H199   1.087       .  S
C198        H200   1.087       .  S
C201        C410   1.205       .  T
C202        C409   1.205       .  T
C202        C411   1.411       .  S
C203        C204   1.205       .  T
C203        C410   1.411       .  S
C205        C206   1.205       .  T
C206        C415   1.411       .  S
C207        C416   1.205       .  T
C207        C414   1.411       .  S
C208        C415   1.205       .  T
O209        C219   1.280       .  A
O210        C220   1.280       .  A
O210       Cu217   2.019   1_565  S
O211       Cu217   2.004   1_564  S
O212        C222   1.275       .  A
O212       Cu217   2.004       .  S
O213        C222   1.277       .  A
O214        C221   1.277       .  A
O214       Cu218   2.012   1_565  S
O215        C220   1.277   1_545  A
O216        C219   1.277       .  A
O216       Cu218   2.010       .  S
C219        C406   1.479       .  S
C220        C401   1.479       .  S
C221        C416   1.434       .  S
C222        C409   1.434       .  S
O223        C233   1.277       .  A
O223       Cu231   2.010       .  S
O224        C234   1.277       .  A
O224       Cu231   2.010       .  S
O225        C235   1.277       .  A
O225       Cu231   2.012   1_545  S
O226        C236   1.277       .  A
O226       Cu231   2.012       .  S
O227        C236   1.275       .  A
O227       Cu232   2.004       .  S
O228        C235   1.275       .  A
O228       Cu232   2.004   1_545  S
O229        C234   1.280       .  A
O229       Cu232   2.019       .  S
O230        C233   1.280       .  A
O230       Cu232   2.019       .  S
Cu231      Cu232   2.377       .  S
C233        C405   1.479       .  S
C234        C402   1.479       .  S
C235        C396   1.434       .  S
C236        C400   1.434       .  S
C237        C412   1.439       .  S
C237        C238   1.401       .  A
C237        C242   1.400       .  A
C238        C239   1.402       .  A
C238        H243   1.085       .  S
C239        C392   1.441       .  S
C239        C240   1.402       .  A
C240        C241   1.402       .  A
C240        H244   1.084       .  S
C241        C385   1.439       .  S
C241        C242   1.400       .  A
C242        H245   1.085       .  S
C246        C393   1.439       .  S
C246        C247   1.401       .  A
C246        C251   1.400       .  A
C247        C248   1.402       .  A
C247        H252   1.085       .  S
C248        C377   1.441       .  S
C248        C249   1.402       .  A
C249        C250   1.402       .  A
C249        H253   1.084       .  S
C250        C381   1.439       .  S
C250        C251   1.400       .  A
C251        H254   1.085       .  S
C255        C413   1.439       .  S
C255        C256   1.400       .  A
C255        C260   1.401       .  A
C256        C257   1.400       .  A
C256        H261   1.085       .  S
C257        C376   1.439       .  S
C257        C258   1.402       .  A
C258        C259   1.402       .  A
C258        H262   1.085       .  S
C259        C369   1.441       .  S
C259        C260   1.402       .  A
C260        H263   1.085       .  S
C264        C397   1.439       .  S
C264        C265   1.401       .  A
C264        C269   1.400       .  A
C265        C266   1.402       .  A
C265        H270   1.085       .  S
C266        C365   1.441       .  S
C266        C267   1.402       .  A
C267        C268   1.402       .  A
C267        H271   1.084       .  S
C268        C361   1.439       .  S
C268        C269   1.400       .  A
C269        H272   1.085       .  S
C273        C357   1.439       .  S
C273        C274   1.399       .  A
C273        C694   1.402       .  A
C274        C275   1.400       .  A
C274        H279   1.085       .  S
C275        C373   1.439       .  S
C275        C692   1.402       .  A
C276        C691   1.402   1_455  A
C276        C277   1.402       .  A
C276        H280   1.084       .  S
C277        C372   1.441       .  S
C277        C278   1.402       .  A
C278        C689   1.402       .  A
C278        H281   1.085       .  S
C282        C356   1.439       .  S
C282        C699   1.399       .  A
C282        C287   1.402       .  A
C283        C698   1.399   1_455  A
C283        C284   1.399       .  A
C283        H288   1.085       .  S
C284        C364   1.439       .  S
C284        C285   1.402   1_455  A
C285        C702   1.402       .  A
C285        H289   1.084       .  S
C286        C368   1.441       .  S
C286        C701   1.402       .  A
C286        C287   1.402       .  A
C287        H290   1.085       .  S
C291        C349   1.439       .  S
C291        C292   1.402       .  A
C291        C712   1.399   1_455  A
C292        C293   1.402       .  A
C292        H297   1.085       .  S
C293        C389   1.441       .  S
C293        C710   1.402       .  A
C294        C709   1.402       .  A
C294        C295   1.402       .  A
C294        H298   1.085       .  S
C295        C388   1.439       .  S
C295        C296   1.399       .  A
C296        C707   1.399       .  A
C296        H299   1.085       .  S
C300        C348   1.439       .  S
C300        C301   1.399   1_655  A
C300        C721   1.402       .  A
C301        C302   1.400       .  A
C301        H306   1.085       .  S
C302        C384   1.439       .  S
C302        C303   1.402   1_455  A
C303        C720   1.402       .  A
C303        H723   1.084       .  S
C304        C380   1.441       .  S
C304        C719   1.402       .  A
C304        C305   1.402       .  A
C305        C716   1.402       .  A
C305        H308   1.085       .  S
H307        C719   1.084       .  S
O309        C319   1.279   1_455  A
O310        C320   1.277       .  A
O310       Cu317   2.008   1_556  S
O311       Cu317   2.003       .  S
O312        C322   1.275   1_554  A
O312       Cu317   2.003       .  S
O313        C530   1.277       .  A
O313       Cu318   2.014       .  S
O314        C737   1.277       .  A
O314       Cu318   2.014       .  S
O315        C736   1.277       .  A
O316        C735   1.276       .  A
O316       Cu318   2.000       .  S
Cu317      Cu526   2.378   1_454  S
Cu318      Cu525   2.378       .  S
C319        O732   1.276       .  A
C319        C342   1.472       .  S
C320        O731   1.277   1_455  A
C320        C338   1.471       .  S
C321        O730   1.277   1_455  A
C321        C360   1.434       .  S
C322        O521   1.277   1_455  A
C322        C352   1.434       .  S
O323        C333   1.277   1_455  A
O323       Cu331   2.014       .  S
O324        C334   1.277   1_455  A
O324       Cu331   2.014       .  S
O325        C335   1.276       .  A
O325       Cu331   2.000       .  S
O326        C336   1.277   1_455  A
O326       Cu331   1.998       .  S
O327        C752   1.277       .  A
O327       Cu332   2.009       .  S
O328        C751   1.279       .  A
O328       Cu332   2.009       .  S
O329        C750   1.275       .  A
O329       Cu332   2.003       .  S
O330        C749   1.275       .  A
O330       Cu332   2.003       .  S
Cu331      Cu748   2.378   1_455  S
Cu332      Cu747   2.378       .  S
C333        O746   1.275       .  A
C333        C353   1.434       .  S
C334        O745   1.275       .  A
C334        C345   1.434       .  S
C335        O744   1.279   1_455  A
C335        C341   1.472       .  S
C336        O743   1.277       .  A
C336        C337   1.471       .  S
C337        C338   1.344   1_655  D
C337        H755   1.087       .  S
C338        H340   1.087       .  S
H339        C753   1.087       .  S
C341        C342   1.341   1_455  D
C341        H343   1.087       .  S
C342        H760   1.087       .  S
H344        C758   1.087       .  S
C345        C762   1.205       .  T
C346        C761   1.205       .  T
C346        C763   1.411       .  S
C347        C348   1.205       .  T
C347        C762   1.411       .  S
C349        C766   1.205       .  T
C350        C765   1.205       .  T
C350        C559   1.411       .  S
C351        C558   1.411       .  S
C353        C354   1.205       .  T
C354        C771   1.411       .  S
C355        C356   1.205       .  T
C355        C770   1.411       .  S
C357        C774   1.205       .  T
C358        C773   1.205       .  T
C358        C775   1.411       .  S
C359        C776   1.205       .  T
C359        C774   1.411       .  S
C360        C775   1.205       .  T
C361        C362   1.205       .  T
C362        C363   1.411       .  S
C363        C364   1.205       .  T
C365        C366   1.206       .  T
C366        C367   1.413       .  S
C367        C368   1.206       .  T
C369        C370   1.206       .  T
C370        C371   1.412       .  S
C371        C372   1.206       .  T
C373        C374   1.205       .  T
C374        C375   1.411       .  S
C375        C376   1.205       .  T
C377        C378   1.206       .  T
C378        C379   1.412       .  S
C379        C380   1.206       .  T
C381        C382   1.205       .  T
C382        C383   1.411       .  S
C383        C384   1.205       .  T
C385        C386   1.205       .  T
C386        C387   1.411       .  S
C387        C388   1.205       .  T
C389        C390   1.206       .  T
C390        C391   1.413       .  S
C391        C392   1.206       .  T
C393        C394   1.205       .  T
C394        C395   1.411       .  S
C395        C396   1.205       .  T
C397        C398   1.205       .  T
C398        C399   1.411       .  S
C399        C400   1.205       .  T
C401        C402   1.344       .  D
C401        H403   1.087       .  S
C402        H404   1.087       .  S
C405        C406   1.344   1_565  D
C405        H407   1.087       .  S
C406        H408   1.087       .  S
C411        C412   1.205       .  T
C413        C414   1.205       .  T
O417        C427   1.280       .  A
O417       Cu633   2.019   1_554  S
O418        C428   1.280       .  A
O418       Cu425   2.019   1_565  S
O419        C637   1.275       .  A
O419       Cu425   2.004   1_565  S
O420        C430   1.275       .  A
O420       Cu425   2.004       .  S
O421        C430   1.277       .  A
O421       Cu634   2.012       .  S
O422        C429   1.277       .  A
O422       Cu426   2.012   1_564  S
O423        C428   1.277   1_545  A
O423       Cu634   2.010       .  S
O424        C427   1.277       .  A
O424       Cu426   2.010   1_554  S
Cu425       O625   2.019       .  S
Cu425      Cu634   2.377       .  S
Cu426       O629   2.012       .  S
Cu426       O631   2.010       .  S
Cu426      Cu633   2.377       .  S
C427        C614   1.479       .  S
C428        C609   1.479       .  S
C429        O627   1.275       .  A
C429        C624   1.434       .  S
C430        C617   1.434       .  S
O431        C441   1.277       .  A
O431       Cu439   2.010       .  S
O432        C442   1.277       .  A
O432       Cu439   2.010       .  S
O433        C443   1.277       .  A
O433       Cu439   2.012   1_545  S
O434        C444   1.277       .  A
O434       Cu439   2.012       .  S
O435        C444   1.275       .  A
O435       Cu440   2.004       .  S
O436        C443   1.275       .  A
O436       Cu440   2.004   1_545  S
O437        C442   1.280       .  A
O437       Cu440   2.019       .  S
O438        C441   1.280       .  A
O438       Cu440   2.019       .  S
Cu439      Cu440   2.377       .  S
C441        C613   1.479       .  S
C442        C610   1.479       .  S
C443        C604   1.434       .  S
C444        C608   1.434       .  S
C445        C620   1.439       .  S
C445        C446   1.401       .  A
C445        C450   1.400       .  A
C446        C447   1.402       .  A
C446        H451   1.085       .  S
C447        C600   1.441       .  S
C447        C448   1.402       .  A
C448        C449   1.402       .  A
C448        H452   1.084       .  S
C449        C593   1.439       .  S
C449        C450   1.400       .  A
C450        H453   1.085       .  S
C454        C601   1.439       .  S
C454        C455   1.401       .  A
C454        C459   1.400       .  A
C455        C456   1.402       .  A
C455        H460   1.085       .  S
C456        C585   1.441       .  S
C456        C457   1.402       .  A
C457        C458   1.402       .  A
C457        H461   1.084       .  S
C458        C589   1.439       .  S
C458        C459   1.400       .  A
C459        H462   1.085       .  S
C463        C621   1.439       .  S
C463        C464   1.400       .  A
C463        C468   1.401       .  A
C464        C465   1.400       .  A
C464        H469   1.085       .  S
C465        C584   1.439       .  S
C465        C466   1.402       .  A
C466        C467   1.402       .  A
C466        H470   1.084       .  S
C467        C577   1.441       .  S
C467        C468   1.402       .  A
C468        H471   1.085       .  S
C472        C605   1.439       .  S
C472        C473   1.401       .  A
C472        C477   1.400       .  A
C473        C474   1.402       .  A
C473        H478   1.085       .  S
C474        C573   1.441       .  S
C474        C475   1.402       .  A
C475        C476   1.402       .  A
C475        H479   1.084       .  S
C476        C569   1.439       .  S
C476        C477   1.400       .  A
C477        H480   1.085       .  S
C481        C565   1.439       .  S
C481        C482   1.399   1_455  A
C482        C483   1.400       .  A
C482        H487   1.085       .  S
C483        C581   1.439       .  S
C484        C485   1.402       .  A
C484        H488   1.084       .  S
C485        C580   1.441       .  S
C485        C486   1.402       .  A
C486        H489   1.085       .  S
C490        C564   1.439       .  S
C490        C495   1.402       .  A
C491        C492   1.399       .  A
C491        H496   1.085       .  S
C492        C572   1.439       .  S
C492        C493   1.402       .  A
C493        H497   1.084       .  S
C494        C576   1.441       .  S
C494        C495   1.402       .  A
C495        H498   1.085       .  S
C499        C557   1.439       .  S
C499        C500   1.402       .  A
C500        C501   1.402       .  A
C500        H505   1.085       .  S
C501        C597   1.441       .  S
C502        C503   1.402   1_455  A
C502        H506   1.084       .  S
C503        C596   1.439       .  S
C503        C504   1.399       .  A
C504        H507   1.085       .  S
C508        C556   1.439       .  S
C508        C509   1.399       .  A
C509        C510   1.400       .  A
C509        H514   1.085       .  S
C510        C592   1.439       .  S
C510        C511   1.402       .  A
C512        C588   1.441       .  S
C512        C513   1.402       .  A
C513        H516   1.085       .  S
O517        C527   1.279       .  A
O517       Cu733   2.009       .  S
O518        C528   1.277       .  A
O518       Cu525   2.009       .  S
O519        C737   1.275       .  A
O519       Cu525   2.003       .  S
O520        C530   1.275       .  A
O520       Cu525   2.003       .  S
O521       Cu526   2.014       .  S
O522       Cu526   2.014       .  S
O523       Cu734   1.998       .  S
O524       Cu526   2.000   1_554  S
Cu525       O725   2.009       .  S
Cu526       O731   1.998       .  S
C527        C550   1.472       .  S
C528        C546   1.471       .  S
C529        O727   1.275       .  A
C529        C568   1.434       .  S
C530        C560   1.434       .  S
O531        C541   1.277       .  A
O531       Cu539   2.014       .  S
O532        C542   1.277       .  A
O532       Cu539   2.014       .  S
O533        C543   1.276       .  A
O533       Cu539   2.000       .  S
O534        C544   1.277       .  A
O534       Cu539   1.998       .  S
O535       Cu540   2.008       .  S
O536       Cu540   2.009       .  S
O537       Cu540   2.003       .  S
O538       Cu540   2.003       .  S
C541        C561   1.434       .  S
C542        C553   1.434       .  S
C543        C549   1.472       .  S
C544        C545   1.471       .  S
C545        C546   1.344       .  D
C546        H548   1.087       .  S
C549        C550   1.341       .  D
C549        H551   1.087       .  S
C555        C556   1.205       .  T
C559        C768   1.205       .  T
C560        C767   1.205       .  T
C561        C562   1.205       .  T
C563        C564   1.205       .  T
C569        C570   1.205       .  T
C570        C571   1.411       .  S
C571        C572   1.205       .  T
C573        C574   1.206       .  T
C574        C575   1.413       .  S
C575        C576   1.206       .  T
C577        C578   1.206       .  T
C578        C579   1.412       .  S
C579        C580   1.206       .  T
C581        C582   1.205       .  T
C582        C583   1.411       .  S
C583        C584   1.205       .  T
C585        C586   1.206       .  T
C586        C587   1.412       .  S
C587        C588   1.206       .  T
C589        C590   1.205       .  T
C590        C591   1.411       .  S
C591        C592   1.205       .  T
C593        C594   1.205       .  T
C594        C595   1.411       .  S
C595        C596   1.205       .  T
C597        C598   1.206       .  T
C598        C599   1.413       .  S
C599        C600   1.206       .  T
C601        C602   1.205       .  T
C602        C603   1.411       .  S
C603        C604   1.205       .  T
C605        C606   1.205       .  T
C606        C607   1.411       .  S
C607        C608   1.205       .  T
C609        C610   1.344       .  D
C609        H611   1.087       .  S
C610        H612   1.087       .  S
C613        C614   1.344   1_565  D
C613        H615   1.087       .  S
C614        H616   1.087       .  S
C617        C826   1.205       .  T
C618        C825   1.205       .  T
C618        C827   1.411       .  S
C619        C620   1.205       .  T
C619        C826   1.411       .  S
C621        C622   1.205       .  T
C622        C831   1.411       .  S
C623        C832   1.205       .  T
C623        C830   1.411       .  S
C624        C831   1.205       .  T
O625        C635   1.280       .  A
O626        C636   1.280       .  A
O626       Cu633   2.019   1_565  S
O627       Cu633   2.004   1_564  S
O628        C638   1.275       .  A
O628       Cu633   2.004       .  S
O629        C638   1.277       .  A
O630        C637   1.277       .  A
O630       Cu634   2.012   1_565  S
O631        C636   1.277   1_545  A
O632        C635   1.277       .  A
O632       Cu634   2.010       .  S
C635        C822   1.479       .  S
C636        C817   1.479       .  S
C637        C832   1.434       .  S
C638        C825   1.434       .  S
O639        C649   1.277       .  A
O639       Cu647   2.010       .  S
O640        C650   1.277       .  A
O640       Cu647   2.010       .  S
O641        C651   1.277       .  A
O641       Cu647   2.012   1_545  S
O642        C652   1.277       .  A
O642       Cu647   2.012       .  S
O643        C652   1.275       .  A
O643       Cu648   2.004       .  S
O644        C651   1.275       .  A
O644       Cu648   2.004   1_545  S
O645        C650   1.280       .  A
O645       Cu648   2.019       .  S
O646        C649   1.280       .  A
O646       Cu648   2.019       .  S
Cu647      Cu648   2.377       .  S
C649        C821   1.479       .  S
C650        C818   1.479       .  S
C651        C812   1.434       .  S
C652        C816   1.434       .  S
C653        C828   1.439       .  S
C653        C654   1.401       .  A
C653        C658   1.400       .  A
C654        C655   1.402       .  A
C654        H659   1.085       .  S
C655        C808   1.441       .  S
C655        C656   1.402       .  A
C656        C657   1.402       .  A
C656        H660   1.084       .  S
C657        C801   1.439       .  S
C657        C658   1.400       .  A
C658        H661   1.085       .  S
C662        C809   1.439       .  S
C662        C663   1.401       .  A
C662        C667   1.400       .  A
C663        C664   1.402       .  A
C663        H668   1.085       .  S
C664        C793   1.441       .  S
C664        C665   1.402       .  A
C665        C666   1.402       .  A
C665        H669   1.084       .  S
C666        C797   1.439       .  S
C666        C667   1.400       .  A
C667        H670   1.085       .  S
C671        C829   1.439       .  S
C671        C672   1.400       .  A
C671        C676   1.401       .  A
C672        C673   1.400       .  A
C672        H677   1.085       .  S
C673        C792   1.439       .  S
C673        C674   1.402       .  A
C674        C675   1.402       .  A
C674        H678   1.085       .  S
C675        C785   1.441       .  S
C675        C676   1.402       .  A
C676        H679   1.085       .  S
C680        C813   1.439       .  S
C680        C681   1.401       .  A
C680        C685   1.400       .  A
C681        C682   1.402       .  A
C681        H686   1.085       .  S
C682        C781   1.441       .  S
C682        C683   1.402       .  A
C683        C684   1.402       .  A
C683        H687   1.084       .  S
C684        C777   1.439       .  S
C684        C685   1.400       .  A
C685        H688   1.085       .  S
C689        C773   1.439       .  S
C689        C690   1.399   1_455  A
C690        C691   1.400       .  A
C690        H695   1.085       .  S
C691        C789   1.439       .  S
C692        C693   1.402       .  A
C692        H696   1.084       .  S
C693        C788   1.441       .  S
C693        C694   1.402       .  A
C694        H697   1.085       .  S
C698        C772   1.439       .  S
C698        C703   1.402       .  A
C699        C700   1.399       .  A
C699        H704   1.085       .  S
C700        C780   1.439       .  S
C700        C701   1.402       .  A
C701        H705   1.084       .  S
C702        C784   1.441       .  S
C702        C703   1.402       .  A
C703        H706   1.084       .  S
C707        C765   1.439       .  S
C707        C708   1.402       .  A
C708        C709   1.402       .  A
C708        H713   1.085       .  S
C709        C805   1.441       .  S
C710        C711   1.402   1_455  A
C710        H714   1.085       .  S
C711        C804   1.439       .  S
C711        C712   1.399       .  A
C712        H715   1.085       .  S
C716        C764   1.439       .  S
C716        C717   1.399       .  A
C717        C718   1.400       .  A
C717        H722   1.085       .  S
C718        C800   1.439       .  S
C718        C719   1.402       .  A
C720        C796   1.441       .  S
C720        C721   1.402       .  A
C721        H724   1.085       .  S
O725        C735   1.279       .  A
O726        C736   1.277       .  A
O726       Cu733   2.008   1_556  S
O727       Cu733   2.003       .  S
O728        C738   1.275   1_554  A
O728       Cu733   2.003       .  S
O729       Cu734   2.014       .  S
O730       Cu734   2.014       .  S
O732       Cu734   2.000       .  S
C735        C758   1.472       .  S
C736        C754   1.471       .  S
C737        C776   1.434       .  S
C738        C768   1.434       .  S
O739        C749   1.277       .  A
O739       Cu747   2.014       .  S
O740        C750   1.277       .  A
O740       Cu747   2.014       .  S
O741        C751   1.276       .  A
O741       Cu747   2.000       .  S
O742        C752   1.277       .  A
O742       Cu747   1.998       .  S
O743       Cu748   2.009       .  S
O744       Cu748   2.009       .  S
O745       Cu748   2.003       .  S
O746       Cu748   2.003       .  S
C749        C769   1.434       .  S
C750        C761   1.434       .  S
C751        C757   1.472       .  S
C752        C753   1.471       .  S
C753        C754   1.344       .  D
C754        H756   1.087       .  S
C757        C758   1.341       .  D
C757        H759   1.087       .  S
C763        C764   1.205       .  T
C769        C770   1.205       .  T
C771        C772   1.205       .  T
C777        C778   1.205       .  T
C778        C779   1.411       .  S
C779        C780   1.205       .  T
C781        C782   1.206       .  T
C782        C783   1.413       .  S
C783        C784   1.206       .  T
C785        C786   1.206       .  T
C786        C787   1.412       .  S
C787        C788   1.206       .  T
C789        C790   1.205       .  T
C790        C791   1.411       .  S
C791        C792   1.205       .  T
C793        C794   1.206       .  T
C794        C795   1.412       .  S
C795        C796   1.206       .  T
C797        C798   1.205       .  T
C798        C799   1.411       .  S
C799        C800   1.205       .  T
C801        C802   1.205       .  T
C802        C803   1.411       .  S
C803        C804   1.205       .  T
C805        C806   1.206       .  T
C806        C807   1.413       .  S
C807        C808   1.206       .  T
C809        C810   1.205       .  T
C810        C811   1.411       .  S
C811        C812   1.205       .  T
C813        C814   1.205       .  T
C814        C815   1.411       .  S
C815        C816   1.205       .  T
C817        C818   1.344       .  D
C817        H819   1.087       .  S
C818        H820   1.087       .  S
C821        C822   1.344   1_565  D
C821        H823   1.087       .  S
C822        H824   1.087       .  S
C827        C828   1.205       .  T
C829        C830   1.205       .  T
