geometry optimzed in LAMMPS
_audit_creation_date              2020-12-01 
_audit_creation_method            'lammps2cif' 
_symmetry_space_group_name_H-M    'P1' 
_symmetry_Int_Tables_number       1 
_symmetry_cell_setting            triclinic 
loop_ 
_symmetry_equiv_pos_as_xyz 
  x,y,z 
_cell_length_a                    56.64434394 
_cell_length_b                    56.768598663500015 
_cell_length_c                    41.90985501160223 
_cell_angle_alpha                 90.15890052433937 
_cell_angle_beta                  89.96346716068567 
_cell_angle_gamma                 119.29524070054825 
loop_ 
_atom_site_label 
_atom_site_type_symbol 
_atom_site_fract_x 
_atom_site_fract_y 
_atom_site_fract_z 
_atom_site_charge 
N1          N  0.71255333  0.75302916  0.15409257    -0.25900
N2          N  0.68824870  0.73843604  0.14132520    -0.33700
C3          C  0.68177454  0.75494920  0.12518434     0.02500
C4          C  0.70291957  0.78117434  0.12814875     0.08500
C5          C  0.72205423  0.77913375  0.14663239    -0.04600
H6          H  0.66277113  0.74840201  0.11287035     0.09200
H7          H  0.74160398  0.79541694  0.15398607     0.10400
Cu8        Cu  0.66445529  0.69688606  0.14747256     0.44200
Cu9        Cu  0.73212505  0.73726944  0.18102960     0.42000
Cu10       Cu  0.69595901  0.66517660  0.19209180     0.43900
N11         N  0.64495501  0.65589721  0.15857844    -0.33300
N12         N  0.65663806  0.64439067  0.17465840    -0.27500
C13         C  0.63875817  0.61803056  0.17858137    -0.03600
C14         C  0.61443403  0.61250727  0.16442018     0.08600
C15         C  0.61924441  0.63712370  0.15193337     0.02400
H16         H  0.64328341  0.60400988  0.19086918     0.10100
H17         H  0.60494298  0.64135168  0.13972372     0.09100
N18         N  0.73489859  0.69001036  0.20902415    -0.34700
N19         N  0.74806769  0.71647706  0.20513056    -0.26900
C20         C  0.77304824  0.72658657  0.21754753    -0.02100
C21         C  0.77584079  0.70543784  0.22983266     0.06500
C22         C  0.75115125  0.68255851  0.22408383     0.04600
H23         H  0.78813705  0.74775058  0.21718070     0.09700
H24         H  0.74571852  0.66185124  0.22923285     0.08500
N25         N  0.71852195  0.98870158  0.02171166    -0.25900
N26         N  0.69265400  0.97806340  0.02940680    -0.33700
C27         C  0.68438916  0.95370221  0.04268001     0.02500
C28         C  0.70603338  0.94869874  0.04325661     0.08500
C29         C  0.72731706  0.97141226  0.02978750    -0.04600
H30         H  0.66391172  0.94036494  0.05061798     0.09200
H31         H  0.74782657  0.97528295  0.02626919     0.10400
Cu32       Cu  0.66925997  0.99652505  0.02061781     0.44200
Cu33       Cu  0.73845828  0.02334672  0.50230364     0.42000
Cu34       Cu  0.70197668  0.06079317  0.49082431     0.43900
N35         N  0.64853508  0.01759618  0.51496687    -0.33300
N36         N  0.66137580  0.04212557  0.50268976    -0.27500
C37         C  0.64357093  0.05099926  0.49772735    -0.03600
C38         C  0.61822217  0.03088169  0.50699091     0.08600
C39         C  0.62418977  0.01177345  0.01006430     0.02400
H40         H  0.64853871  0.07023165  0.48710646     0.10100
H41         H  0.60859475  0.99246503  0.01881724     0.09100
N42         N  0.74149023  0.07427236  0.47654748    -0.34700
N43         N  0.75485873  0.06080386  0.48008897    -0.26900
C44         C  0.77981214  0.07550599  0.46761653    -0.02100
C45         C  0.78223512  0.09939094  0.45562613     0.06500
C46         C  0.75748364  0.09777327  0.46191498     0.04600
H47         H  0.79493219  0.06909998  0.46719040     0.09700
H48         H  0.75154195  0.11283544  0.45693624     0.08500
N49         N  0.98534198  0.29839666  0.36034207    -0.25900
N50         N  0.97212047  0.31190541  0.36511931    -0.33700
C51         C  0.94689253  0.29459851  0.37517417     0.02500
C52         C  0.94399398  0.26891323  0.37655754     0.08500
C53         C  0.96882808  0.27217563  0.36700260    -0.04600
H54         H  0.93160089  0.30024400  0.38037011     0.09200
H55         H  0.97460618  0.25665072  0.36520442     0.10400
Cu56       Cu  0.98854045  0.35306535  0.35646687     0.44200
Cu57       Cu  0.02499967  0.31572851  0.34409552     0.42000
Cu58       Cu  0.05695434  0.38696254  0.32601543     0.43900
N59         N  0.00943872  0.39396405  0.34516635    -0.33300
N60         N  0.03469677  0.40638616  0.33475170    -0.27500
C61         C  0.04274550  0.43271453  0.33053085    -0.03600
C62         C  0.02148097  0.43710667  0.33839855     0.08600
C63         C  0.00063544  0.41205972  0.34746137     0.02400
H64         H  0.06254752  0.44751640  0.32198473     0.10100
H65         H  0.98072348  0.40741976  0.35571298     0.09100
N66         N  0.07495281  0.36330572  0.31784772    -0.34700
N67         N  0.06355663  0.33732669  0.32469899    -0.26900
C68         C  0.08051038  0.32809956  0.31619250    -0.02100
C69         C  0.10376668  0.34934514  0.30330486     0.06500
C70         C  0.09933024  0.37128171  0.30472001     0.04600
H71         H  0.07620115  0.30748511  0.31941771     0.09700
H72         H  0.11253856  0.39152870  0.29620184     0.08500
N73         N  0.33270343  0.29945580  0.14240209    -0.25900
N74         N  0.35718687  0.31393131  0.13018818    -0.33700
C75         C  0.36460621  0.29721328  0.11624882     0.02500
C76         C  0.34399163  0.27078108  0.12009412     0.08500
C77         C  0.32404080  0.27311072  0.13679458    -0.04600
H78         H  0.38378221  0.30400343  0.10433906     0.09200
H79         H  0.30488923  0.25689358  0.14509443     0.10400
Cu80       Cu  0.38100407  0.35554653  0.13561082     0.44200
Cu81       Cu  0.31230846  0.31621923  0.16632338     0.42000
Cu82       Cu  0.35184030  0.38823526  0.18211374     0.43900
N83         N  0.40292933  0.39562128  0.15048808    -0.33300
N84         N  0.39218340  0.40747636  0.16775299    -0.27500
C85         C  0.41145692  0.43290451  0.17448082    -0.03600
C86         C  0.43566552  0.43742801  0.16084610     0.08600
C87         C  0.42939494  0.41319903  0.14585294     0.02400
H88         H  0.40811324  0.44685800  0.18878827     0.10100
H89         H  0.44293873  0.40868801  0.13230846     0.09100
N90         N  0.31115547  0.36476944  0.19410752    -0.34700
N91         N  0.29663621  0.33865394  0.18772274    -0.26900
C92         C  0.27095176  0.32975411  0.19723763    -0.02100
C93         C  0.26933775  0.35121523  0.21057863     0.06500
C94         C  0.29516499  0.37307051  0.20832944     0.04600
H95         H  0.25471904  0.30916402  0.19483130     0.09700
H96         H  0.30172591  0.39358570  0.21591104     0.08500
N97         N  0.33700206  0.06412948  0.02108396    -0.25900
N98         N  0.36277490  0.07577445  0.02942201    -0.33700
C99         C  0.36984462  0.09978732  0.04308378     0.02500
C100        C  0.34748626  0.10356070  0.04306830     0.08500
C101        C  0.32702407  0.08056677  0.02886033    -0.04600
H102        H  0.38991839  0.11368493  0.05180004     0.09200
H103        H  0.30633654  0.07594317  0.02487052     0.10400
Cu104      Cu  0.38720333  0.05870405  0.02092514     0.44200
Cu105      Cu  0.31383029  0.02356904  0.50711428     0.42000
Cu106      Cu  0.35215854  0.98833319  0.49474644     0.43900
N107        N  0.40551577  0.03512210  0.51464557    -0.33300
N108        N  0.39336938  0.01009364  0.50362918    -0.27500
C109        C  0.41209469  0.00248124  0.49841253    -0.03600
C110        C  0.43720231  0.02392158  0.50621072     0.08600
C111        C  0.43457557  0.04738936  0.01200346     0.02400
H112        H  0.40780694  0.98300746  0.48899943     0.10100
H113        H  0.44919501  0.06771912  0.01919812     0.09100
N114        N  0.31105536  0.97145384  0.48588498    -0.34700
N115        N  0.29703768  0.98415730  0.49048966    -0.26900
C116        C  0.27110821  0.96762719  0.48218795    -0.02100
C117        C  0.26867567  0.94335414  0.47170546     0.06500
C118        C  0.29446645  0.94658051  0.47441935     0.04600
H119        H  0.25536630  0.97316849  0.48304419     0.09700
H120        H  0.30077936  0.93189873  0.46873775     0.08500
N121        N  0.06213438  0.75407409  0.36277519    -0.25900
N122        N  0.07620636  0.74114048  0.36178547    -0.33700
C123        C  0.10125219  0.75752270  0.37306512     0.02500
C124        C  0.10314470  0.78199361  0.38175420     0.08500
C125        C  0.07789568  0.77901371  0.37471448    -0.04600
H126        H  0.11687818  0.75187791  0.37484440     0.09200
H127        H  0.07109600  0.79354953  0.37885523     0.10400
Cu128      Cu  0.06048268  0.70112212  0.34741953     0.44200
Cu129      Cu  0.02177128  0.73707323  0.34912911     0.42000
Cu130      Cu  0.98924642  0.66661330  0.32811256     0.43900
N131        N  0.03836367  0.66000468  0.33738073    -0.33300
N132        N  0.01211304  0.64746858  0.33128149    -0.27500
C133        C  0.00315569  0.62087863  0.32813471    -0.03600
C134        C  0.02481003  0.61635023  0.33227970     0.08600
C135        C  0.04687545  0.64163138  0.33797641     0.02400
H136        H  0.98234460  0.60594902  0.32331744     0.10100
H137        H  0.06736014  0.64620194  0.34337332     0.09100
N138        N  0.97034437  0.68970251  0.32508294    -0.34700
N139        N  0.98192059  0.71544029  0.33339772    -0.26900
C140        C  0.96445955  0.72465839  0.32788435    -0.02100
C141        C  0.94098191  0.70373323  0.31513677     0.06500
C142        C  0.94542721  0.68190294  0.31367028     0.04600
H143        H  0.96894140  0.74529403  0.33158197     0.09700
H144        H  0.93174900  0.66194503  0.30455687     0.08500
C145        C  0.15428488  0.85452168  0.40359963     0.14100
C146        C  0.17251366  0.85081960  0.42273944     0.01000
C147        C  0.16759799  0.82457567  0.42909129     0.16000
C148        C  0.14489402  0.80223278  0.41618251     0.25400
C149        C  0.12675933  0.80575634  0.39633894    -0.40900
C150        C  0.13160087  0.83221555  0.39046146     0.32500
C151        C  0.19704699  0.87434738  0.43551877     0.01100
F152        F  0.18473861  0.82061841  0.44810923    -0.13200
F153        F  0.11497510  0.83666035  0.37112848    -0.13700
C154        C  0.19508541  0.89002964  0.46021882     0.16000
C155        C  0.21837880  0.91234189  0.47220569     0.25400
C156        C  0.24402664  0.91942834  0.45947223    -0.40800
C157        C  0.24586630  0.90349534  0.43479255     0.32400
C158        C  0.22256978  0.88109612  0.42304929     0.14100
F159        F  0.17062269  0.88338596  0.47311464    -0.13200
F160        F  0.27007636  0.91003257  0.42125215    -0.13700
F161        F  0.21587781  0.92649301  0.49689396    -0.16000
F162        F  0.22483606  0.86620134  0.39905711    -0.14600
F163        F  0.15889578  0.87982531  0.39695293    -0.14600
F164        F  0.14037946  0.77715897  0.42385567    -0.16000
C165        C  0.31952108  0.19851138  0.09219099     0.14100
C166        C  0.34403363  0.19815199  0.08875855     0.01000
C167        C  0.36842417  0.22163219  0.09597251     0.16000
C168        C  0.36837085  0.24500966  0.10646344     0.25400
C169        C  0.34387827  0.24562287  0.10958799    -0.40900
C170        C  0.31941105  0.22198138  0.10240730     0.32500
C171        C  0.34428016  0.17344139  0.07744221     0.01100
F172        F  0.39247763  0.22210390  0.09235024    -0.13200
F173        F  0.29532795  0.22162080  0.10443982    -0.13700
C174        C  0.33219858  0.16140018  0.04816624     0.16000
C175        C  0.33284821  0.13840218  0.03724505     0.25400
C176        C  0.34602158  0.12731614  0.05511147    -0.40800
C177        C  0.35815919  0.13935963  0.08433692     0.32400
C178        C  0.35708119  0.16205878  0.09554046     0.14100
F179        F  0.32049404  0.17242163  0.02963636    -0.13200
F180        F  0.37049948  0.12874815  0.10246049    -0.13700
F181        F  0.32255403  0.12790704  0.50908634    -0.16000
F182        F  0.36823440  0.17272099  0.12432895    -0.14600
F183        F  0.29558732  0.17599875  0.08588332    -0.14600
F184        F  0.39240556  0.26681380  0.11421898    -0.16000
C185        C  0.99973259  0.48957813  0.32335269     0.14100
C186        C  0.02219360  0.51321580  0.33488942     0.01000
C187        C  0.04411356  0.51152655  0.34811778     0.16000
C188        C  0.04381638  0.48676159  0.34927124     0.25400
C189        C  0.02141313  0.46313225  0.33765865    -0.40900
C190        C  0.99922746  0.46469649  0.32501037     0.32500
C191        C  0.02264353  0.53955377  0.33360812     0.01100
F192        F  0.06557660  0.53380053  0.36061501    -0.13200
F193        F  0.97742929  0.44230212  0.31329334    -0.13700
C194        C  0.00204443  0.54268177  0.34834005     0.16000
C195        C  0.00263383  0.56758523  0.34762785     0.25400
C196        C  0.02404360  0.58994647  0.33252472    -0.40800
C197        C  0.04464530  0.58684723  0.31775085     0.32400
C198        C  0.04385664  0.56181197  0.31810029     0.14100
F199        F  0.98170145  0.52177208  0.36420454    -0.13200
F200        F  0.06512227  0.60784968  0.30216570    -0.13700
F201        F  0.98273773  0.57005155  0.36273124    -0.16000
F202        F  0.06356623  0.55916051  0.30279352    -0.14600
F203        F  0.97852671  0.49070705  0.30983917    -0.14600
F204        F  0.06509627  0.48573463  0.36270437    -0.16000
C205        C  0.22175310  0.35750611  0.26891476     0.14100
C206        C  0.19867159  0.35000355  0.24988105     0.01000
C207        C  0.19912607  0.34307788  0.21769811     0.16000
C208        C  0.22208253  0.34324863  0.20497599     0.25400
C209        C  0.24511787  0.35090184  0.22401315    -0.40900
C210        C  0.24486362  0.35818261  0.25599056     0.32500
C211        C  0.17429102  0.34959950  0.26362307     0.01100
F212        F  0.17757126  0.33675567  0.19840985    -0.13200
F213        F  0.26673541  0.36516123  0.27496257    -0.13700
C214        C  0.17635477  0.37284643  0.27818901     0.16000
C215        C  0.15361682  0.37249727  0.29167967     0.25400
C216        C  0.12805951  0.34902012  0.29031142    -0.40800
C217        C  0.12603527  0.32564818  0.27582040     0.32400
C218        C  0.14895329  0.32594845  0.26270529     0.14100
F219        F  0.20043148  0.39612829  0.27900460    -0.13200
F220        F  0.10182789  0.30264306  0.27356099    -0.13700
F221        F  0.15688835  0.39508627  0.30676306    -0.16000
F222        F  0.14645324  0.30299857  0.24939505    -0.14600
F223        F  0.22170503  0.36366212  0.30023750    -0.14600
F224        F  0.22212588  0.33666066  0.17381509    -0.16000
C225        C  0.49216689  0.00505676  0.51558225     0.14100
C226        C  0.51476302  0.02781149  0.50269281     0.01900
C227        C  0.51143646  0.04901931  0.49030718     0.16000
C228        C  0.48616661  0.04774944  0.49144812     0.25400
C229        C  0.46367419  0.02498877  0.50430078    -0.40900
C230        C  0.46678021  0.00351657  0.51597997     0.32500
C231        C  0.54170893  0.02938045  0.50240821     0.01100
F232        F  0.53269676  0.07065856  0.96385811    -0.13200
F233        F  0.44544637  0.98149333  0.52896564    -0.13700
C234        C  0.54472802  0.00817331  0.48929610     0.16000
C235        C  0.56967130  0.00878874  0.49070566     0.25400
C236        C  0.59224561  0.03092303  0.50449933    -0.40800
C237        C  0.59348364  0.05678052  0.00559060     0.32400
C238        C  0.56856964  0.05649049  0.00543027     0.14100
F239        F  0.52353129  0.98692648  0.47482348    -0.13200
F240        F  0.61587281  0.07923364  0.01610769    -0.13700
F241        F  0.57192541  0.98796969  0.47794980    -0.16000
F242        F  0.56747251  0.07854421  0.01609360    -0.14600
F243        F  0.49481971  0.98461650  0.52865637    -0.14600
F244        F  0.48329226  0.06771760  0.96796883    -0.16000
C245        C  0.85499952  0.15193512  0.43703416     0.14100
C246        C  0.85118358  0.16908083  0.41619715     0.01000
C247        C  0.82492907  0.16242204  0.40675745     0.16000
C248        C  0.80260902  0.13923347  0.41863750     0.25400
C249        C  0.80614760  0.12245342  0.44067167    -0.40900
C250        C  0.83269047  0.12883311  0.44929227     0.32500
C251        C  0.87451119  0.19459761  0.40544173     0.01100
F252        F  0.82092793  0.17857809  0.38619023    -0.13200
F253        F  0.83714326  0.11356241  0.47073351    -0.13700
C254        C  0.89082864  0.19470742  0.38022357     0.16000
C255        C  0.91323091  0.21892181  0.37052832     0.25400
C256        C  0.91969224  0.24341649  0.38604636    -0.40800
C257        C  0.90293998  0.24321043  0.41101888     0.32400
C258        C  0.88052135  0.21897590  0.42058020     0.14100
F259        F  0.88487866  0.17136463  0.36484440    -0.13200
F260        F  0.90876821  0.26627263  0.42697011    -0.13700
F261        F  0.92818174  0.21847623  0.34544769    -0.16000
F262        F  0.86486632  0.21917047  0.44502159    -0.14600
F263        F  0.88034440  0.15811583  0.44634420    -0.14600
F264        F  0.77756365  0.13318774  0.40829385    -0.16000
C265        C  0.51173118  0.48619596  0.16310419     0.14100
C266        C  0.51262619  0.51138762  0.16337026     0.01000
C267        C  0.48818932  0.51210794  0.16311981     0.16000
C268        C  0.46331154  0.48815249  0.16236652     0.25400
C269        C  0.46225802  0.46282424  0.16184707    -0.40900
C270        C  0.48682533  0.46214626  0.16225191     0.32500
C271        C  0.53896079  0.53695813  0.16340616     0.01100
F272        F  0.48841534  0.53613175  0.16380736    -0.13200
F273        F  0.48683739  0.43824467  0.16247562    -0.13700
C274        C  0.54563877  0.55546721  0.13825115     0.16000
C275        C  0.57019072  0.57981061  0.13839729     0.25400
C276        C  0.58862114  0.58628784  0.16386049    -0.40800
C277        C  0.58192597  0.56754985  0.18895536     0.32400
C278        C  0.55737400  0.54317587  0.18868557     0.14100
F279        F  0.52847928  0.54974335  0.11319317    -0.13200
F280        F  0.59862174  0.57312012  0.21443556    -0.13700
F281        F  0.57614551  0.59667311  0.11311832    -0.16000
F282        F  0.55120990  0.52596088  0.21365800    -0.14600
F283        F  0.53504405  0.48490459  0.16312108    -0.14600
F284        F  0.44026939  0.48988223  0.16114155    -0.16000
C285        C  0.84954094  0.72553679  0.24375392     0.14100
C286        C  0.84736420  0.70741826  0.26775384     0.01000
C287        C  0.82176562  0.68903137  0.27977899     0.16000
C288        C  0.79850914  0.68856997  0.26775721     0.25400
C289        C  0.80052947  0.70660448  0.24350541    -0.40900
C290        C  0.82634968  0.72521597  0.23175679     0.32500
C291        C  0.87171647  0.70712712  0.27969642     0.01100
F292        F  0.81931002  0.67115958  0.30276564    -0.13200
F293        F  0.82916447  0.74240776  0.20776424    -0.13700
C294        C  0.88150895  0.71653690  0.31054507     0.16000
C295        C  0.90427864  0.71569781  0.32204486     0.25400
C296        C  0.91720328  0.70498701  0.30300754    -0.40800
C297        C  0.90725982  0.69543303  0.27219478     0.32400
C298        C  0.88485055  0.69678732  0.26049447     0.14100
F299        F  0.86901475  0.72657885  0.32941977    -0.13200
F300        F  0.91959307  0.68529672  0.25318855    -0.13700
F301        F  0.91319527  0.72453755  0.35210361    -0.16000
F302        F  0.87570556  0.68768246  0.23056679    -0.14600
F303        F  0.87416949  0.74344418  0.23182068    -0.14600
F304        F  0.77408198  0.67070830  0.28017336    -0.16000
C305        C  0.69627625  0.82994363  0.07211625     0.14100
C306        C  0.70704317  0.85355853  0.09072706     0.01000
C307        C  0.71672909  0.85339438  0.12151503     0.16000
C308        C  0.71562498  0.82993019  0.13358082     0.25400
C309        C  0.70449164  0.80611384  0.11515912    -0.40900
C310        C  0.69478192  0.80632997  0.08432533     0.32500
C311        C  0.70708651  0.87801893  0.07858171     0.01100
F312        F  0.72718810  0.87599810  0.13992720    -0.13200
F313        F  0.68422112  0.78380488  0.06579261    -0.13700
C314        C  0.69111225  0.88745173  0.09352838     0.16000
C315        C  0.69063437  0.91029294  0.08196072     0.25400
C316        C  0.70636077  0.92430718  0.05532285    -0.40800
C317        C  0.72246585  0.91482417  0.04043689     0.32400
C318        C  0.72272471  0.89181412  0.05192524     0.14100
F319        F  0.67568469  0.87427505  0.11919362    -0.13200
F320        F  0.73741253  0.92732943  0.01422332    -0.13700
F321        F  0.67526099  0.91902553  0.09737925    -0.16000
F322        F  0.73841859  0.88309973  0.03719046    -0.14600
F323        F  0.68663546  0.82961528  0.04237059    -0.14600
F324        F  0.72452376  0.83025633  0.16373698    -0.16000
N325        N  0.71059440  0.75220822  0.66110599    -0.25900
N326        N  0.68707714  0.73713676  0.64689109    -0.33700
C327        C  0.68055486  0.75306410  0.62969545     0.02500
C328        C  0.70088780  0.77953887  0.63338363     0.08500
C329        C  0.71962995  0.77821911  0.65348376    -0.04600
H330        H  0.66199224  0.74591172  0.61621274     0.09200
H331        H  0.73855752  0.79489549  0.66180138     0.10400
Cu332      Cu  0.66477952  0.69575433  0.65213428     0.44200
Cu333      Cu  0.72930977  0.73611994  0.68906153     0.42000
Cu334      Cu  0.69672091  0.66200891  0.69040277     0.43900
N335        N  0.64583473  0.65451081  0.65902657    -0.33300
N336        N  0.65755079  0.64181230  0.67232229    -0.27500
C337        C  0.63957962  0.61523339  0.67351094    -0.03600
C338        C  0.61522757  0.61103396  0.66052303     0.08600
C339        C  0.62012972  0.63653489  0.65163994     0.02400
H340        H  0.64398768  0.60024601  0.68335632     0.10100
H341        H  0.60590450  0.64195786  0.64156356     0.09100
N342        N  0.73475481  0.68789585  0.70922351    -0.34700
N343        N  0.74613228  0.71454063  0.70940436    -0.26900
C344        C  0.77088257  0.72503916  0.72253866    -0.02100
C345        C  0.77546474  0.70404961  0.73097921     0.06500
C346        C  0.75204125  0.68079332  0.72222353     0.04600
H347        H  0.78459491  0.74644943  0.72527468     0.09700
H348        H  0.74814205  0.66018977  0.72402716     0.08500
N349        N  0.71632316  0.98670430  0.52581423    -0.25900
N350        N  0.69085758  0.97691906  0.53486025    -0.33700
C351        C  0.68246621  0.95291857  0.54907310     0.02500
C352        C  0.70356337  0.94713701  0.54891931     0.08500
C353        C  0.72472695  0.96908601  0.53396326    -0.04600
H354        H  0.66217165  0.94026269  0.55801429     0.09200
H355        H  0.74483620  0.97215858  0.52940987     0.10400
Cu356      Cu  0.66783384  0.99566653  0.52649851     0.44200
Cu357      Cu  0.74108246  0.02584085  0.99981305     0.42000
Cu358      Cu  0.70514001  0.06281365  0.98635456     0.43900
N359        N  0.65063281  0.01909837  0.00826940    -0.33300
N360        N  0.66402355  0.04380699  0.99652287    -0.27500
C361        C  0.64652853  0.05297455  0.99087477    -0.03600
C362        C  0.62076659  0.03295221  0.99912076     0.08600
C363        C  0.62211430  0.00999771  0.51774902     0.02400
H364        H  0.65206042  0.07246896  0.98061616     0.10100
H365        H  0.60683928  0.99065743  0.52681464     0.09100
N366        N  0.74503123  0.07654213  0.97283459    -0.34700
N367        N  0.75821490  0.06300423  0.97725010    -0.26900
C368        C  0.78328874  0.07727279  0.96497884    -0.02100
C369        C  0.78606770  0.10103163  0.95214342     0.06500
C370        C  0.76133505  0.09975740  0.95777256     0.04600
H371        H  0.79821137  0.07060714  0.96520764     0.09700
H372        H  0.75562298  0.11485274  0.95197407     0.08500
N373        N  0.99066425  0.30162779  0.86072700    -0.25900
N374        N  0.97579112  0.31372155  0.86045505    -0.33700
C375        C  0.95032671  0.29578112  0.86903160     0.02500
C376        C  0.94902226  0.27112783  0.87500687     0.08500
C377        C  0.97509058  0.27574489  0.86951337    -0.04600
H378        H  0.93388967  0.30032177  0.87018007     0.09200
H379        H  0.98238923  0.26142815  0.87184710     0.10400
Cu380      Cu  0.99080171  0.35410984  0.84850613     0.44200
Cu381      Cu  0.03106341  0.32018092  0.84734853     0.42000
Cu382      Cu  0.05990991  0.38973890  0.82124110     0.43900
N383        N  0.01129034  0.39525022  0.83862055    -0.33300
N384        N  0.03676245  0.40837380  0.82905282    -0.27500
C385        C  0.04462178  0.43482820  0.82665928    -0.03600
C386        C  0.02302975  0.43859889  0.83507620     0.08600
C387        C  0.00221316  0.41299864  0.84239201     0.02400
H388        H  0.06463987  0.45017185  0.81942266     0.10100
H389        H  0.98220912  0.40774044  0.85092311     0.09100
N390        N  0.07931132  0.36697416  0.81690143    -0.34700
N391        N  0.06911085  0.34179266  0.82685743    -0.26900
C392        C  0.08647859  0.33279687  0.81960018    -0.02100
C393        C  0.10872900  0.35332999  0.80427956     0.06500
C394        C  0.10337768  0.37466032  0.80305799     0.04600
H395        H  0.08297069  0.31270905  0.82491392     0.09700
H396        H  0.11560858  0.39411699  0.79196887     0.08500
N397        N  0.33391818  0.29997925  0.63896423    -0.25900
N398        N  0.35845303  0.31433056  0.62688061    -0.33700
C399        C  0.36641623  0.29747910  0.61458143     0.02500
C400        C  0.34603748  0.27110847  0.61934650     0.08500
C401        C  0.32570624  0.27357103  0.63489225    -0.04600
H402        H  0.38569370  0.30412747  0.60297631     0.09200
H403        H  0.30654260  0.25745578  0.64329467     0.10400
Cu404      Cu  0.38128218  0.35603475  0.63004906     0.44200
Cu405      Cu  0.31283898  0.31701890  0.66047659     0.42000
Cu406      Cu  0.35290788  0.38847794  0.67839994     0.43900
N407        N  0.40263897  0.39634323  0.64343868    -0.33300
N408        N  0.39247394  0.40798488  0.66200066    -0.27500
C409        C  0.41165755  0.43361831  0.66776736    -0.03600
C410        C  0.43516628  0.43847952  0.65200702     0.08600
C411        C  0.42857212  0.41427430  0.63679532     0.02400
H412        H  0.40874388  0.44740206  0.68292446     0.10100
H413        H  0.44152959  0.40988353  0.62193368     0.09100
N414        N  0.31185998  0.36563867  0.68784370    -0.34700
N415        N  0.29699100  0.33979890  0.68033354    -0.26900
C416        C  0.27110981  0.33135480  0.68860792    -0.02100
C417        C  0.26978377  0.35286774  0.70228080     0.06500
C418        C  0.29595144  0.37422608  0.70153004     0.04600
H419        H  0.25469103  0.31089719  0.68583878     0.09700
H420        H  0.30292895  0.39450661  0.71032512     0.08500
N421        N  0.33594697  0.06268722  0.52453718    -0.25900
N422        N  0.36186372  0.07399054  0.53215082    -0.33700
C423        C  0.37015357  0.09888763  0.54370820     0.02500
C424        C  0.34845473  0.10361010  0.54320677     0.08500
C425        C  0.32707853  0.08029241  0.53080287    -0.04600
H426        H  0.39054810  0.11257666  0.55165898     0.09200
H427        H  0.30648383  0.07615708  0.52734884     0.10400
Cu428      Cu  0.38533724  0.05585715  0.52601235     0.44200
Cu429      Cu  0.31666169  0.02602741  0.00057888     0.42000
Cu430      Cu  0.35458714  0.98989603  0.99092955     0.43900
N431        N  0.40771704  0.03786029  0.01026584    -0.33300
N432        N  0.39581674  0.01243182  0.00050680    -0.27500
C433        C  0.41481912  0.00498133  0.99632960    -0.03600
C434        C  0.43983869  0.02691342  0.00332757     0.08600
C435        C  0.43227183  0.04426804  0.51639986     0.02400
H436        H  0.41081459  0.98531983  0.98790723     0.10100
H437        H  0.44700071  0.06420263  0.52469467     0.09100
N438        N  0.31367413  0.97349428  0.98024650    -0.34700
N439        N  0.30012084  0.98681767  0.98348448    -0.26900
C440        C  0.27424514  0.97065170  0.97482660    -0.02100
C441        C  0.27117107  0.94581849  0.96572353     0.06500
C442        C  0.29670173  0.94845033  0.96939869     0.04600
H443        H  0.25889076  0.97672889  0.97500178     0.09700
H444        H  0.30248791  0.93315774  0.96521113     0.08500
N445        N  0.06096341  0.75442986  0.86826265    -0.25900
N446        N  0.07460544  0.74108387  0.86957889    -0.33700
C447        C  0.09943859  0.75754624  0.88130203     0.02500
C448        C  0.10162200  0.78250861  0.88766665     0.08500
C449        C  0.07679299  0.77975816  0.87901104    -0.04600
H450        H  0.11489266  0.75180212  0.88446193     0.09200
H451        H  0.07048936  0.79488783  0.88072287     0.10400
Cu452      Cu  0.05904370  0.70099679  0.85583430     0.44200
Cu453      Cu  0.02158550  0.73777457  0.85172594     0.42000
Cu454      Cu  0.98979029  0.66743616  0.82870740     0.43900
N455        N  0.03768409  0.66019487  0.84421326    -0.33300
N456        N  0.01196037  0.64785140  0.83548692    -0.27500
C457        C  0.00322228  0.62131746  0.83196472    -0.03600
C458        C  0.02456092  0.61678530  0.83837797     0.08600
C459        C  0.04615623  0.64182937  0.84596152     0.02400
H460        H  0.98284049  0.60643856  0.82524339     0.10100
H461        H  0.06623248  0.64622214  0.85321794     0.09100
N462        N  0.97190456  0.69129510  0.82301424    -0.34700
N463        N  0.98321334  0.71683419  0.83211207    -0.26900
C464        C  0.96628732  0.72643557  0.82544205    -0.02100
C465        C  0.94337612  0.70598430  0.81118021     0.06500
C466        C  0.94762070  0.68400590  0.80997292     0.04600
H467        H  0.97059886  0.74691338  0.83003966     0.09700
H468        H  0.93398710  0.66411477  0.80064029     0.08500
C469        C  0.15519305  0.85561910  0.90144423     0.14100
C470        C  0.17259220  0.85265108  0.92285049     0.01000
C471        C  0.16614737  0.82682297  0.93354757     0.16000
C472        C  0.14279946  0.80409421  0.92259090     0.25400
C473        C  0.12555504  0.80681619  0.90050346    -0.40900
C474        C  0.13182746  0.83288718  0.89031555     0.32500
C475        C  0.19773231  0.87643668  0.93377176     0.01100
F476        F  0.18245748  0.82368422  0.95482390    -0.13200
F477        F  0.11600011  0.83637164  0.86865430    -0.13700
C478        C  0.19667708  0.89440601  0.95595669     0.16000
C479        C  0.22053544  0.91673701  0.96666227     0.25400
C480        C  0.24591416  0.92169384  0.95495265    -0.40800
C481        C  0.24680989  0.90343045  0.93276986     0.32400
C482        C  0.22290231  0.88092717  0.92244110     0.14100
F483        F  0.17251167  0.88995546  0.96776336    -0.13200
F484        F  0.27069502  0.90765466  0.92033922    -0.13700
F485        F  0.21875001  0.93294503  0.98928189    -0.16000
F486        F  0.22424091  0.86364076  0.90099899    -0.14600
F487        F  0.16126751  0.88049540  0.89067783    -0.14600
F488        F  0.13681585  0.77948107  0.93415193    -0.16000
C489        C  0.32222390  0.19890839  0.59244626     0.14100
C490        C  0.34686931  0.19881778  0.58913456     0.01000
C491        C  0.37111731  0.22225895  0.59694343     0.16000
C492        C  0.37077630  0.24545581  0.60750840     0.25400
C493        C  0.34618034  0.24593150  0.60986782    -0.40900
C494        C  0.32185867  0.22223925  0.60249224     0.32500
C495        C  0.34729611  0.17439055  0.57729641     0.01100
F496        F  0.39529491  0.22292335  0.59371755    -0.13200
F497        F  0.29768115  0.22171746  0.60401272    -0.13700
C498        C  0.33457854  0.16223332  0.54830228     0.16000
C499        C  0.33471375  0.13902676  0.53731374     0.25400
C500        C  0.34808241  0.12795777  0.55476783    -0.40800
C501        C  0.36119150  0.14033974  0.58344297     0.32400
C502        C  0.36052995  0.16315612  0.59480265     0.14100
F503        F  0.32253711  0.17319321  0.53024241    -0.13200
F504        F  0.37391041  0.12982828  0.60105599    -0.13700
F505        F  0.32155026  0.12763023  0.00855368    -0.16000
F506        F  0.37230984  0.17390545  0.62331178    -0.14600
F507        F  0.29839887  0.17629350  0.58604280    -0.14600
F508        F  0.39460018  0.26725959  0.61592692    -0.16000
C509        C  0.99896938  0.49024092  0.82936067     0.14100
C510        C  0.02204687  0.51395395  0.83936876     0.01000
C511        C  0.04515464  0.51266971  0.84890644     0.16000
C512        C  0.04546283  0.48818571  0.84767976     0.25400
C513        C  0.02256746  0.46446946  0.83698680    -0.40900
C514        C  0.99921195  0.46570770  0.82815886     0.32500
C515        C  0.02239479  0.54020972  0.83898113     0.01100
F516        F  0.06733590  0.53514836  0.85981416    -0.13200
F517        F  0.97692597  0.44339066  0.81719174    -0.13700
C518        C  0.00451144  0.54449658  0.85824541     0.16000
C519        C  0.00516283  0.56946123  0.85791349     0.25400
C520        C  0.02388804  0.59053597  0.83860702    -0.40800
C521        C  0.04165002  0.58624639  0.81922749     0.32400
C522        C  0.04076484  0.56118262  0.81922282     0.14100
F523        F  0.98677686  0.52467070  0.87777306    -0.13200
F524        F  0.05923903  0.60606026  0.79957475    -0.13700
F525        F  0.98799728  0.57333037  0.87705186    -0.16000
F526        F  0.05742002  0.55712821  0.79940119    -0.14600
F527        F  0.97645429  0.49101857  0.81983692    -0.14600
F528        F  0.06793959  0.48759466  0.85774694    -0.16000
C529        C  0.22516317  0.36047489  0.76362988     0.14100
C530        C  0.20096956  0.35190877  0.74649634     0.01000
C531        C  0.19953660  0.34360085  0.71453754     0.16000
C532        C  0.22188257  0.34368566  0.70009378     0.25400
C533        C  0.24608588  0.35253461  0.71723046    -0.40900
C534        C  0.24759807  0.36102154  0.74901127     0.32500
C535        C  0.17742846  0.35199238  0.76189047     0.01100
F536        F  0.17671243  0.33601681  0.69712457    -0.13200
F537        F  0.27060921  0.36908199  0.76620844    -0.13700
C538        C  0.18006488  0.37591671  0.77516699     0.16000
C539        C  0.15789891  0.37617330  0.78947165     0.25400
C540        C  0.13249429  0.35253356  0.79054961    -0.40800
C541        C  0.12996613  0.32847879  0.77754918     0.32400
C542        C  0.15225643  0.32822771  0.76344791     0.14100
F543        F  0.20406999  0.39924431  0.77378585    -0.13200
F544        F  0.10576230  0.30535287  0.77746160    -0.13700
F545        F  0.16150510  0.39955394  0.80271690    -0.16000
F546        F  0.14930379  0.30468315  0.75147033    -0.14600
F547        F  0.22689186  0.36782409  0.79476334    -0.14600
F548        F  0.22018187  0.33594127  0.66911286    -0.16000
C549        C  0.49690343  0.01124588  0.01535120     0.14100
C550        C  0.51797201  0.03190785  0.99764908     0.01900
C551        C  0.51307364  0.05093997  0.98184581     0.16000
C552        C  0.48764468  0.04936474  0.98383626     0.25400
C553        C  0.46658983  0.02850176  0.00119104    -0.40900
C554        C  0.47135654  0.00937821  0.01678327     0.32500
C555        C  0.54481927  0.03323241  0.99561988     0.01100
F556        F  0.53255281  0.07076869  0.47659047    -0.13200
F557        F  0.45149403  0.98936870  0.03423424    -0.13700
C558        C  0.54664142  0.01068416  0.98490593     0.16000
C559        C  0.57139828  0.01080734  0.98555334     0.25400
C560        C  0.59498646  0.03365516  0.99646620    -0.40800
C561        C  0.58960060  0.05266752  0.51646594     0.32400
C562        C  0.56443560  0.05173615  0.51585849     0.14100
F563        F  0.52434569  0.98848471  0.97369225    -0.13200
F564        F  0.61109348  0.07427968  0.52997848    -0.13700
F565        F  0.57237458  0.98867813  0.97497658    -0.16000
F566        F  0.56206128  0.07222914  0.52943155    -0.14600
F567        F  0.50125716  0.99315961  0.03182684    -0.14600
F568        F  0.48351349  0.06846477  0.47922853    -0.16000
C569        C  0.85927857  0.15318801  0.93475726     0.14100
C570        C  0.85592926  0.17068603  0.91395875     0.01000
C571        C  0.82982863  0.16394401  0.90360684     0.16000
C572        C  0.80727912  0.14060403  0.91482348     0.25400
C573        C  0.81033066  0.12378402  0.93722454    -0.40900
C574        C  0.83671427  0.12995325  0.94635952     0.32500
C575        C  0.87957429  0.19631650  0.90367209     0.01100
F576        F  0.82619451  0.18002477  0.88254150    -0.13200
F577        F  0.84078781  0.11431827  0.96763053    -0.13700
C578        C  0.89995021  0.19605071  0.88490847     0.16000
C579        C  0.92239515  0.22029322  0.87540863     0.25400
C580        C  0.92499493  0.24535677  0.88473976    -0.40800
C581        C  0.90443490  0.24548219  0.90359748     0.32400
C582        C  0.88192717  0.22118867  0.91286129     0.14100
F583        F  0.89783417  0.17223126  0.87529669    -0.13200
F584        F  0.90645613  0.26904973  0.91405399    -0.13700
F585        F  0.94114757  0.21911034  0.85632316    -0.16000
F586        F  0.86268118  0.22191633  0.93151935    -0.14600
F587        F  0.88439431  0.15921791  0.94486082    -0.14600
F588        F  0.78247848  0.13437943  0.90339447    -0.16000
C589        C  0.51103572  0.48689223  0.64974221     0.14100
C590        C  0.51217076  0.51200677  0.65361287     0.01000
C591        C  0.48793340  0.51292563  0.65649043     0.16000
C592        C  0.46295477  0.48912659  0.65564725     0.25400
C593        C  0.46169906  0.46382210  0.65215286    -0.40900
C594        C  0.48610255  0.46303075  0.64915522     0.32500
C595        C  0.53864407  0.53719102  0.65508065     0.01100
F596        F  0.48846704  0.53691014  0.66068117    -0.13200
F597        F  0.48603848  0.43916468  0.64663517    -0.13700
C598        C  0.54502896  0.55800400  0.63299634     0.16000
C599        C  0.56999477  0.58178198  0.63445366     0.25400
C600        C  0.58908099  0.58534851  0.65827322    -0.40800
C601        C  0.58251538  0.56439057  0.68042036     0.32400
C602        C  0.55758882  0.54058190  0.67876619     0.14100
F603        F  0.52719348  0.55513032  0.60964282    -0.13200
F604        F  0.59966803  0.56720672  0.70454881    -0.13700
F605        F  0.57557831  0.60100022  0.61202389    -0.16000
F606        F  0.55158578  0.52108981  0.70097913    -0.14600
F607        F  0.53416233  0.48549153  0.64635519    -0.14600
F608        F  0.44003408  0.49102878  0.65765691    -0.16000
C609        C  0.84980482  0.72885191  0.74789866     0.14100
C610        C  0.84828325  0.70817868  0.76743193     0.01000
C611        C  0.82296960  0.68661429  0.77579561     0.16000
C612        C  0.79926476  0.68554216  0.76449250     0.25400
C613        C  0.80057350  0.70595968  0.74430731    -0.40900
C614        C  0.82615446  0.72776813  0.73630445     0.32500
C615        C  0.87312851  0.70851577  0.77822302     0.01100
F616        F  0.82128802  0.66644371  0.79466614    -0.13200
F617        F  0.82844826  0.74748408  0.71621032    -0.13700
C618        C  0.88472837  0.72003676  0.80773753     0.16000
C619        C  0.90786286  0.71952273  0.81835483     0.25400
C620        C  0.91948193  0.70726723  0.79962072    -0.40800
C621        C  0.90787631  0.69590671  0.76993389     0.32400
C622        C  0.88487318  0.69661595  0.75928053     0.14100
F623        F  0.87340749  0.73144185  0.82637242    -0.13200
F624        F  0.91912158  0.68461915  0.75097507    -0.13700
F625        F  0.91830879  0.73008735  0.84742096    -0.16000
F626        F  0.87389703  0.68555195  0.73056581    -0.14600
F627        F  0.87425575  0.74980967  0.73958867    -0.14600
F628        F  0.77507058  0.66470492  0.77370489    -0.16000
C629        C  0.69165227  0.82678619  0.57734667     0.14100
C630        C  0.70121079  0.85022736  0.59617313     0.01000
C631        C  0.71092856  0.85037630  0.62703919     0.16000
C632        C  0.71112424  0.82750846  0.63895044     0.25400
C633        C  0.70149278  0.80398395  0.62023781    -0.40900
C634        C  0.69177941  0.80383296  0.58927225     0.32500
C635        C  0.70136142  0.87468271  0.58367491     0.01100
F636        F  0.72045651  0.87282722  0.64560803    -0.13200
F637        F  0.68291277  0.78167433  0.57029305    -0.13700
C638        C  0.68681133  0.88543346  0.59935787     0.16000
C639        C  0.68771584  0.90908021  0.58825267     0.25400
C640        C  0.70308706  0.92236519  0.56107169    -0.40800
C641        C  0.71763126  0.91149396  0.54539366     0.32400
C642        C  0.71673819  0.88786830  0.55660172     0.14100
F643        F  0.67157876  0.87290254  0.62540269    -0.13200
F644        F  0.73225977  0.92332405  0.51876299    -0.13700
F645        F  0.67414452  0.91935580  0.60470311    -0.16000
F646        F  0.73128288  0.87807642  0.54131130    -0.14600
F647        F  0.68181978  0.82601136  0.54758901    -0.14600
F648        F  0.71994871  0.82814284  0.66921047    -0.16000
loop_ 
_geom_bond_atom_site_label_1 
_geom_bond_atom_site_label_2 
_geom_bond_distance 
_geom_bond_site_symmetry_2 
_ccdc_geom_bond_type 
N1            N2   1.323       .  A
N1            C5   1.344       .  A
N1           Cu9   2.069       .  S
N2            C3   1.346       .  A
N2           Cu8   2.083       .  S
C3            C4   1.386       .  A
C3            H6   1.082       .  S
C4            C5   1.383       .  A
C4          C309   1.480       .  S
C5            H7   1.083       .  S
Cu8          N11   2.084       .  S
Cu9          N19   2.069       .  S
Cu10         N12   2.077       .  S
Cu10         N18   2.076       .  S
N11          N12   1.321       .  A
N11          C15   1.347       .  A
N12          C13   1.345       .  A
C13          C14   1.388       .  A
C13          H16   1.080       .  S
C14          C15   1.390       .  A
C14         C276   1.491       .  S
C15          H17   1.080       .  S
N18          N19   1.321       .  A
N18          C22   1.345       .  A
N19          C20   1.344       .  A
C20          C21   1.386       .  A
C20          H23   1.081       .  S
C21          C22   1.386       .  A
C21         C289   1.483       .  S
C22          H24   1.082       .  S
N25          N26   1.323       .  A
N25          C29   1.344       .  A
N25        Cu357   2.072   1_564  S
N26          C27   1.346       .  A
N26         Cu32   2.086       .  S
C27          C28   1.388       .  A
C27          H30   1.082       .  S
C28          C29   1.384       .  A
C28         C316   1.484       .  S
C29          H31   1.082       .  S
Cu32        N359   2.086   1_565  S
Cu33         N43   2.080       .  S
Cu33        N349   2.080   1_545  S
Cu34         N36   2.068       .  S
Cu34         N42   2.068       .  S
N35          N36   1.321       .  A
N35         C363   1.345       .  A
N35        Cu356   2.077   1_545  S
N36          C37   1.346       .  A
C37          C38   1.383       .  A
C37          H40   1.082       .  S
C38         C363   1.384       .  A
C38         C236   1.476       .  S
C39         N359   1.346       .  A
C39         C362   1.387   1_554  A
C39          H41   1.082   1_545  S
N42          N43   1.322       .  A
N42          C46   1.341       .  A
N43          C44   1.347       .  A
C44          C45   1.390       .  A
C44          H47   1.082       .  S
C45          C46   1.385       .  A
C45         C249   1.486       .  S
C46          H48   1.082       .  S
N49          N50   1.323       .  A
N49          C53   1.345       .  A
N49         Cu57   2.078   1_655  S
N50          C51   1.346       .  A
N50         Cu56   2.082       .  S
C51          C52   1.387       .  A
C51          H54   1.082       .  S
C52          C53   1.385       .  A
C52         C256   1.483       .  S
C53          H55   1.082       .  S
Cu56         N59   2.081   1_655  S
Cu57         N67   2.078       .  S
Cu58         N60   2.073       .  S
Cu58         N66   2.073       .  S
N59          N60   1.322       .  A
N59          C63   1.347       .  A
N60          C61   1.344       .  A
C61          C62   1.384       .  A
C61          H64   1.082       .  S
C62          C63   1.386       .  A
C62         C189   1.480       .  S
C63          H65   1.082   1_455  S
N66          N67   1.321       .  A
N66          C70   1.343       .  A
N67          C68   1.347       .  A
C68          C69   1.389       .  A
C68          H71   1.081       .  S
C69          C70   1.387       .  A
C69         C216   1.488       .  S
C70          H72   1.081       .  S
N73          N74   1.322       .  A
N73          C77   1.346       .  A
N73         Cu81   2.077       .  S
N74          C75   1.344       .  A
N74         Cu80   2.081       .  S
C75          C76   1.388       .  A
C75          H78   1.081       .  S
C76          C77   1.389       .  A
C76         C169   1.490       .  S
C77          H79   1.081       .  S
Cu80         N83   2.082       .  S
Cu81         N91   2.077       .  S
Cu82         N84   2.082       .  S
Cu82         N90   2.082       .  S
N83          N84   1.321       .  A
N83          C87   1.348       .  A
N84          C85   1.346       .  A
C85          C86   1.389       .  A
C85          H88   1.080       .  S
C86          C87   1.389       .  A
C86         C269   1.491       .  S
C87          H89   1.080       .  S
N90          N91   1.323       .  A
N90          C94   1.347       .  A
N91          C92   1.346       .  A
C92          C93   1.382       .  A
C92          H95   1.081       .  S
C93          C94   1.383       .  A
C93         C209   1.475       .  S
C94          H96   1.082       .  S
N97          N98   1.321       .  A
N97         C101   1.346       .  A
N97        Cu429   2.073       .  S
N98          C99   1.345       .  A
N98        Cu104   2.071       .  S
C99         C100   1.384       .  A
C99         H102   1.082       .  S
C100        C101   1.385       .  A
C100        C176   1.478       .  S
C101        H103   1.081       .  S
Cu104       N431   2.072       .  S
Cu105       N115   2.075   1_545  S
Cu105       N421   2.075       .  S
Cu106       N108   2.071   1_565  S
Cu106       N114   2.072       .  S
N107        N108   1.321       .  A
N107        C435   1.342       .  A
N107       Cu428   2.057       .  S
N108        C109   1.344       .  A
C109        C110   1.384       .  A
C109        H112   1.082   1_545  S
C110        C435   1.381       .  A
C110        C229   1.473       .  S
C111        N431   1.344       .  A
C111        C434   1.382       .  A
C111        H113   1.082       .  S
N114        N115   1.322       .  A
N114        C118   1.344       .  A
N115        C116   1.345       .  A
C116        C117   1.386       .  A
C116        H119   1.082       .  S
C117        C118   1.385       .  A
C117        C156   1.483       .  S
C118        H120   1.082       .  S
N121        N122   1.322       .  A
N121        C125   1.346       .  A
N121       Cu129   2.080       .  S
N122        C123   1.345       .  A
N122       Cu128   2.081       .  S
C123        C124   1.388       .  A
C123        H126   1.081       .  S
C124        C125   1.387       .  A
C124        C149   1.488       .  S
C125        H127   1.081       .  S
Cu128       N131   2.080       .  S
Cu129       N139   2.079   1_455  S
Cu130       N132   2.063   1_655  S
Cu130       N138   2.063       .  S
N131        N132   1.322       .  A
N131        C135   1.347       .  A
N132        C133   1.343       .  A
C133        C134   1.382       .  A
C133        H136   1.082   1_455  S
C134        C135   1.386       .  A
C134        C196   1.478       .  S
C135        H137   1.082       .  S
N138        N139   1.321       .  A
N138        C142   1.344       .  A
N139        C140   1.346       .  A
C140        C141   1.384       .  A
C140        H143   1.081       .  S
C141        C142   1.381       .  A
C141        C296   1.474       .  S
C142        H144   1.081       .  S
C145        C146   1.403       .  A
C145        C150   1.401       .  A
C145        F163   1.358       .  S
C146        C147   1.401       .  A
C146        C151   1.477       .  S
C147        C148   1.399       .  A
C147        F152   1.358       .  S
C148        C149   1.411       .  A
C148        F164   1.357       .  S
C149        C150   1.411       .  A
C150        F153   1.357       .  S
C151        C154   1.403       .  A
C151        C158   1.403       .  A
C154        C155   1.400       .  A
C154        F159   1.358       .  S
C155        C156   1.409       .  A
C155        F161   1.357       .  S
C156        C157   1.409       .  A
C157        C158   1.398       .  A
C157        F160   1.357       .  S
C158        F162   1.358       .  S
C165        C166   1.406       .  A
C165        C170   1.401       .  A
C165        F183   1.358       .  S
C166        C167   1.405       .  A
C166        C171   1.486       .  S
C167        C168   1.398       .  A
C167        F172   1.358       .  S
C168        C169   1.411       .  A
C168        F184   1.357       .  S
C169        C170   1.411       .  A
C170        F173   1.357       .  S
C171        C174   1.407       .  A
C171        C178   1.407       .  A
C174        C175   1.400       .  A
C174        F179   1.358       .  S
C175        C176   1.406       .  A
C175        F505   1.358       .  S
C176        C177   1.406       .  A
C177        C178   1.399       .  A
C177        F180   1.358       .  S
C178        F182   1.358       .  S
F181        C499   1.358       .  S
C185        C186   1.407   1_655  A
C185        C190   1.401       .  A
C185        F203   1.358       .  S
C186        C187   1.406       .  A
C186        C191   1.484       .  S
C187        C188   1.399       .  A
C187        F192   1.358       .  S
C188        C189   1.406       .  A
C188        F204   1.358       .  S
C189        C190   1.407   1_455  A
C190        F193   1.358       .  S
C191        C194   1.406       .  A
C191        C198   1.407       .  A
C194        C195   1.398       .  A
C194        F199   1.358   1_455  S
C195        C196   1.407       .  A
C195        F201   1.358   1_455  S
C196        C197   1.406       .  A
C197        C198   1.400       .  A
C197        F200   1.358       .  S
C198        F202   1.358       .  S
C205        C206   1.408       .  A
C205        C210   1.399       .  A
C205        F223   1.358       .  S
C206        C207   1.408       .  A
C206        C211   1.486       .  S
C207        C208   1.401       .  A
C207        F212   1.358       .  S
C208        C209   1.404       .  A
C208        F224   1.358       .  S
C209        C210   1.404       .  A
C210        F213   1.358       .  S
C211        C214   1.404       .  A
C211        C218   1.406       .  A
C214        C215   1.398       .  A
C214        F219   1.358       .  S
C215        C216   1.410       .  A
C215        F221   1.357       .  S
C216        C217   1.410       .  A
C217        C218   1.402       .  A
C217        F220   1.357       .  S
C218        F222   1.358       .  S
C225        C226   1.408       .  A
C225        C230   1.397       .  A
C225        F243   1.358   1_545  S
C226        C227   1.407       .  A
C226        C231   1.485       .  S
C227        C228   1.398       .  A
C227        F556   1.358       .  S
C228        C229   1.405       .  A
C228        F568   1.358       .  S
C229        C230   1.403       .  A
C230        F233   1.358   1_545  S
C231        C234   1.407       .  A
C231        C562   1.408       .  A
F232        C551   1.358       .  S
C234        C235   1.397       .  A
C234        F239   1.358   1_545  S
C235        C236   1.405       .  A
C235        F241   1.358   1_545  S
C236        C561   1.405       .  A
C237        C238   1.403       .  A
C237        C560   1.408   1_554  A
C237        F240   1.358       .  S
C238        C555   1.408   1_554  A
C238        F242   1.358       .  S
F244        C552   1.358       .  S
C245        C246   1.403       .  A
C245        C250   1.401       .  A
C245        F263   1.358       .  S
C246        C247   1.400       .  A
C246        C251   1.476       .  S
C247        C248   1.398       .  A
C247        F252   1.358       .  S
C248        C249   1.411       .  A
C248        F264   1.357       .  S
C249        C250   1.410       .  A
C250        F253   1.357       .  S
C251        C254   1.402       .  A
C251        C258   1.403       .  A
C254        C255   1.400       .  A
C254        F259   1.358       .  S
C255        C256   1.410       .  A
C255        F261   1.357       .  S
C256        C257   1.409       .  A
C257        C258   1.400       .  A
C257        F260   1.357       .  S
C258        F262   1.358       .  S
C265        C266   1.406       .  A
C265        C270   1.404       .  A
C265        F283   1.358       .  S
C266        C267   1.405       .  A
C266        C271   1.488       .  S
C267        C268   1.400       .  A
C267        F272   1.358       .  S
C268        C269   1.410       .  A
C268        F284   1.357       .  S
C269        C270   1.411       .  A
C270        F273   1.357       .  S
C271        C274   1.405       .  A
C271        C278   1.405       .  A
C274        C275   1.401       .  A
C274        F279   1.358       .  S
C275        C276   1.410       .  A
C275        F281   1.357       .  S
C276        C277   1.412       .  A
C277        C278   1.402       .  A
C277        F280   1.357       .  S
C278        F282   1.358       .  S
C285        C286   1.402       .  A
C285        C290   1.399       .  A
C285        F303   1.358       .  S
C286        C287   1.402       .  A
C286        C291   1.475       .  S
C287        C288   1.399       .  A
C287        F292   1.358       .  S
C288        C289   1.409       .  A
C288        F304   1.357       .  S
C289        C290   1.410       .  A
C290        F293   1.357       .  S
C291        C294   1.404       .  A
C291        C298   1.403       .  A
C294        C295   1.400       .  A
C294        F299   1.358       .  S
C295        C296   1.405       .  A
C295        F301   1.358       .  S
C296        C297   1.406       .  A
C297        C298   1.398       .  A
C297        F300   1.358       .  S
C298        F302   1.358       .  S
C305        C306   1.404       .  A
C305        C310   1.400       .  A
C305        F323   1.358       .  S
C306        C307   1.404       .  A
C306        C311   1.479       .  S
C307        C308   1.399       .  A
C307        F312   1.358       .  S
C308        C309   1.408       .  A
C308        F324   1.358       .  S
C309        C310   1.407       .  A
C310        F313   1.357       .  S
C311        C314   1.403       .  A
C311        C318   1.404       .  A
C314        C315   1.398       .  A
C314        F319   1.358       .  S
C315        C316   1.408       .  A
C315        F321   1.357       .  S
C316        C317   1.410       .  A
C317        C318   1.400       .  A
C317        F320   1.357       .  S
C318        F322   1.358       .  S
N325        N326   1.321       .  A
N325        C329   1.344       .  A
N325       Cu333   2.070       .  S
N326        C327   1.343       .  A
N326       Cu332   2.064       .  S
C327        C328   1.384       .  A
C327        H330   1.082       .  S
C328        C329   1.386       .  A
C328        C633   1.479       .  S
C329        H331   1.083       .  S
Cu332       N335   2.064       .  S
Cu333       N343   2.070       .  S
Cu334       N336   2.078       .  S
Cu334       N342   2.079       .  S
N335        N336   1.320       .  A
N335        C339   1.342       .  A
N336        C337   1.346       .  A
C337        C338   1.391       .  A
C337        H340   1.080       .  S
C338        C339   1.386       .  A
C338        C600   1.488       .  S
C339        H341   1.080       .  S
N342        N343   1.323       .  A
N342        C346   1.344       .  A
N343        C344   1.344       .  A
C344        C345   1.385       .  A
C344        H347   1.081       .  S
C345        C346   1.386       .  A
C345        C613   1.482       .  S
C346        H348   1.082       .  S
N349        N350   1.323       .  A
N349        C353   1.346       .  A
N350        C351   1.344       .  A
N350       Cu356   2.078       .  S
C351        C352   1.386       .  A
C351        H354   1.082       .  S
C352        C353   1.387       .  A
C352        C640   1.485       .  S
C353        H355   1.082       .  S
Cu357       N367   2.072       .  S
Cu358       N360   2.077       .  S
Cu358       N366   2.076       .  S
N359        N360   1.322   1_554  A
N360        C361   1.347       .  A
C361        C362   1.385       .  A
C361        H364   1.082       .  S
C362        C560   1.484       .  S
C363        H365   1.082   1_545  S
N366        N367   1.321       .  A
N366        C370   1.342       .  A
N367        C368   1.347       .  A
C368        C369   1.389       .  A
C368        H371   1.082       .  S
C369        C370   1.387       .  A
C369        C573   1.488       .  S
C370        H372   1.082       .  S
N373        N374   1.322       .  A
N373        C377   1.344       .  A
N373       Cu381   2.074   1_655  S
N374        C375   1.346       .  A
N374       Cu380   2.081       .  S
C375        C376   1.388       .  A
C375        H378   1.082       .  S
C376        C377   1.387       .  A
C376        C580   1.488       .  S
C377        H379   1.082       .  S
Cu380       N383   2.080   1_655  S
Cu381       N391   2.074       .  S
Cu382       N384   2.074       .  S
Cu382       N390   2.073       .  S
N383        N384   1.322       .  A
N383        C387   1.346       .  A
N384        C385   1.345       .  A
C385        C386   1.386       .  A
C385        H388   1.082       .  S
C386        C387   1.386       .  A
C386        C513   1.484       .  S
C387        H389   1.082   1_455  S
N390        N391   1.321       .  A
N390        C394   1.343       .  A
N391        C392   1.346       .  A
C392        C393   1.387       .  A
C392        H395   1.081       .  S
C393        C394   1.386       .  A
C393        C540   1.485       .  S
C394        H396   1.081       .  S
N397        N398   1.321       .  A
N397        C401   1.345       .  A
N397       Cu405   2.073       .  S
N398        C399   1.343       .  A
N398       Cu404   2.073       .  S
C399        C400   1.387       .  A
C399        H402   1.081       .  S
C400        C401   1.388       .  A
C400        C493   1.486       .  S
C401        H403   1.081       .  S
Cu404       N407   2.073       .  S
Cu405       N415   2.074       .  S
Cu406       N408   2.072       .  S
Cu406       N414   2.073       .  S
N407        N408   1.320       .  A
N407        C411   1.345       .  A
N408        C409   1.344       .  A
C409        C410   1.388       .  A
C409        H412   1.080       .  S
C410        C411   1.388       .  A
C410        C593   1.487       .  S
C411        H413   1.080       .  S
N414        N415   1.322       .  A
N414        C418   1.344       .  A
N415        C416   1.346       .  A
C416        C417   1.383       .  A
C416        H419   1.081       .  S
C417        C418   1.382       .  A
C417        C533   1.473       .  S
C418        H420   1.082       .  S
N421        N422   1.321       .  A
N421        C425   1.345       .  A
N422        C423   1.342       .  A
N422       Cu428   2.057       .  S
C423        C424   1.380       .  A
C423        H426   1.082       .  S
C424        C425   1.385       .  A
C424        C500   1.473       .  S
C425        H427   1.081       .  S
Cu429       N439   2.073   1_544  S
Cu430       N432   2.080   1_566  S
Cu430       N438   2.080       .  S
N431        N432   1.323       .  A
N432        C433   1.346   1_554  A
C433        C434   1.384   1_556  A
C433        H436   1.083   1_545  S
C434        C553   1.476       .  S
C435        H437   1.082       .  S
N438        N439   1.322       .  A
N438        C442   1.346       .  A
N439        C440   1.343       .  A
C440        C441   1.386       .  A
C440        H443   1.081       .  S
C441        C442   1.388       .  A
C441        C480   1.485       .  S
C442        H444   1.081       .  S
N445        N446   1.322       .  A
N445        C449   1.345       .  A
N445       Cu453   2.070       .  S
N446        C447   1.344       .  A
N446       Cu452   2.078       .  S
C447        C448   1.386       .  A
C447        H450   1.082       .  S
C448        C449   1.385       .  A
C448        C473   1.482       .  S
C449        H451   1.082       .  S
Cu452       N455   2.078       .  S
Cu453       N463   2.069   1_455  S
Cu454       N456   2.065   1_655  S
Cu454       N462   2.065       .  S
N455        N456   1.322       .  A
N455        C459   1.346       .  A
N456        C457   1.343       .  A
C457        C458   1.380       .  A
C457        H460   1.082   1_455  S
C458        C459   1.384       .  A
C458        C520   1.472       .  S
C459        H461   1.082       .  S
N462        N463   1.321       .  A
N462        C466   1.343       .  A
N463        C464   1.344       .  A
C464        C465   1.383       .  A
C464        H467   1.081       .  S
C465        C466   1.382       .  A
C465        C620   1.473       .  S
C466        H468   1.081       .  S
C469        C470   1.403       .  A
C469        C474   1.400       .  A
C469        F487   1.358       .  S
C470        C471   1.401       .  A
C470        C475   1.475       .  S
C471        C472   1.397       .  A
C471        F476   1.358       .  S
C472        C473   1.409       .  A
C472        F488   1.357       .  S
C473        C474   1.410       .  A
C474        F477   1.357       .  S
C475        C478   1.401       .  A
C475        C482   1.403       .  A
C478        C479   1.398       .  A
C478        F483   1.358       .  S
C479        C480   1.411       .  A
C479        F485   1.357       .  S
C480        C481   1.410       .  A
C481        C482   1.399       .  A
C481        F484   1.357       .  S
C482        F486   1.358       .  S
C489        C490   1.405       .  A
C489        C494   1.398       .  A
C489        F507   1.358       .  S
C490        C491   1.405       .  A
C490        C495   1.483       .  S
C491        C492   1.397       .  A
C491        F496   1.358       .  S
C492        C493   1.410       .  A
C492        F508   1.357       .  S
C493        C494   1.410       .  A
C494        F497   1.357       .  S
C495        C498   1.408       .  A
C495        C502   1.406       .  A
C498        C499   1.398       .  A
C498        F503   1.358       .  S
C499        C500   1.404       .  A
C500        C501   1.405       .  A
C501        C502   1.396       .  A
C501        F504   1.358       .  S
C502        F506   1.358       .  S
C509        C510   1.404   1_655  A
C509        C514   1.400       .  A
C509        F527   1.358       .  S
C510        C511   1.404       .  A
C510        C515   1.481       .  S
C511        C512   1.399       .  A
C511        F516   1.358       .  S
C512        C513   1.409       .  A
C512        F528   1.357       .  S
C513        C514   1.408   1_455  A
C514        F517   1.357       .  S
C515        C518   1.406       .  A
C515        C522   1.406       .  A
C518        C519   1.400       .  A
C518        F523   1.358   1_455  S
C519        C520   1.405       .  A
C519        F525   1.358   1_455  S
C520        C521   1.403       .  A
C521        C522   1.399       .  A
C521        F524   1.358       .  S
C522        F526   1.358       .  S
C529        C530   1.406       .  A
C529        C534   1.397       .  A
C529        F547   1.358       .  S
C530        C531   1.408       .  A
C530        C535   1.483       .  S
C531        C532   1.401       .  A
C531        F536   1.358       .  S
C532        C533   1.405       .  A
C532        F548   1.358       .  S
C533        C534   1.403       .  A
C534        F537   1.358       .  S
C535        C538   1.405       .  A
C535        C542   1.405       .  A
C538        C539   1.397       .  A
C538        F543   1.358       .  S
C539        C540   1.409       .  A
C539        F545   1.357       .  S
C540        C541   1.410       .  A
C541        C542   1.400       .  A
C541        F544   1.357       .  S
C542        F546   1.358       .  S
C549        C550   1.409   1_554  A
C549        C554   1.400       .  A
C549        F567   1.358   1_545  S
C550        C551   1.407       .  A
C550        C555   1.488       .  S
C551        C552   1.401       .  A
C552        C553   1.406   1_556  A
C553        C554   1.403       .  A
C554        F557   1.358   1_545  S
C555        C558   1.406       .  A
C558        C559   1.399       .  A
C558        F563   1.358   1_545  S
C559        C560   1.407       .  A
C559        F565   1.357   1_545  S
C561        C562   1.401       .  A
C561        F564   1.358       .  S
C562        F566   1.358       .  S
C569        C570   1.404       .  A
C569        C574   1.401       .  A
C569        F587   1.358       .  S
C570        C571   1.402       .  A
C570        C575   1.481       .  S
C571        C572   1.398       .  A
C571        F576   1.358       .  S
C572        C573   1.411       .  A
C572        F588   1.357       .  S
C573        C574   1.411       .  A
C574        F577   1.357       .  S
C575        C578   1.402       .  A
C575        C582   1.404       .  A
C578        C579   1.400       .  A
C578        F583   1.358       .  S
C579        C580   1.411       .  A
C579        F585   1.357       .  S
C580        C581   1.410       .  A
C581        C582   1.400       .  A
C581        F584   1.357       .  S
C582        F586   1.358       .  S
C589        C590   1.404       .  A
C589        C594   1.399       .  A
C589        F607   1.358       .  S
C590        C591   1.404       .  A
C590        C595   1.483       .  S
C591        C592   1.399       .  A
C591        F596   1.358       .  S
C592        C593   1.410       .  A
C592        F608   1.357       .  S
C593        C594   1.410       .  A
C594        F597   1.357       .  S
C595        C598   1.404       .  A
C595        C602   1.404       .  A
C598        C599   1.399       .  A
C598        F603   1.358       .  S
C599        C600   1.412       .  A
C599        F605   1.357       .  S
C600        C601   1.410       .  A
C601        C602   1.399       .  A
C601        F604   1.357       .  S
C602        F606   1.358       .  S
C609        C610   1.400       .  A
C609        C614   1.398       .  A
C609        F627   1.358       .  S
C610        C611   1.401       .  A
C610        C615   1.470       .  S
C611        C612   1.397       .  A
C611        F616   1.358       .  S
C612        C613   1.409       .  A
C612        F628   1.357       .  S
C613        C614   1.411       .  A
C614        F617   1.357       .  S
C615        C618   1.402       .  A
C615        C622   1.402       .  A
C618        C619   1.398       .  A
C618        F623   1.358       .  S
C619        C620   1.406       .  A
C619        F625   1.358       .  S
C620        C621   1.406       .  A
C621        C622   1.397       .  A
C621        F624   1.358       .  S
C622        F626   1.358       .  S
C629        C630   1.406       .  A
C629        C634   1.400       .  A
C629        F647   1.358       .  S
C630        C631   1.405       .  A
C630        C635   1.481       .  S
C631        C632   1.397       .  A
C631        F636   1.358       .  S
C632        C633   1.406       .  A
C632        F648   1.357       .  S
C633        C634   1.408       .  A
C634        F637   1.358       .  S
C635        C638   1.405       .  A
C635        C642   1.404       .  A
C638        C639   1.399       .  A
C638        F643   1.358       .  S
C639        C640   1.409       .  A
C639        F645   1.357       .  S
C640        C641   1.409       .  A
C641        C642   1.400       .  A
C641        F644   1.357       .  S
C642        F646   1.358       .  S
