geometry optimzed in LAMMPS
_audit_creation_date              2020-12-01 
_audit_creation_method            'lammps2cif' 
_symmetry_space_group_name_H-M    'P1' 
_symmetry_Int_Tables_number       1 
_symmetry_cell_setting            triclinic 
loop_ 
_symmetry_equiv_pos_as_xyz 
  x,y,z 
_cell_length_a                    40.50189458 
_cell_length_b                    29.929922062244792 
_cell_length_c                    33.4513926946125 
_cell_angle_alpha                 78.29080631671367 
_cell_angle_beta                  89.51572482632788 
_cell_angle_gamma                 90.34123043797445 
loop_ 
_atom_site_label 
_atom_site_type_symbol 
_atom_site_fract_x 
_atom_site_fract_y 
_atom_site_fract_z 
_atom_site_charge 
Zn1        Zn  0.47305700  0.01560660  0.95770624     1.49700
Zn2        Zn  0.50682654  0.44683686  0.03334748     1.49400
Zn3        Zn  0.04834218  0.00218049  0.95559665     1.49100
Zn4        Zn  0.51789594  0.05361795  0.02188130     1.49500
O5          O  0.01136115  0.00391080  0.99280399    -1.82700
O6          O  0.43896751  0.46871585  0.97684893    -0.73400
O7          O  0.04619898  0.40561931  0.02649504    -0.73200
O8          O  0.03672627  0.01330532  0.89575306    -0.72700
O9          O  0.46005660  0.41981675  0.02936661    -0.73400
O10         O  0.48239178  0.01852626  0.89803475    -0.73000
O11         O  0.07177624  0.44426483  0.97070500    -0.73600
O12         O  0.06406063  0.08160902  0.01045505    -0.72900
O13         O  0.51016253  0.45693084  0.09191623    -0.73700
O14         O  0.08387464  0.04495556  0.96387779    -0.73100
O15         O  0.51720784  0.02964222  0.08239227    -0.73600
O16         O  0.47859278  0.09683930  0.01224792    -0.73500
O17         O  0.45028896  0.07167622  0.96427903    -0.73300
C18         C  0.43596471  0.43404826  0.00568764     0.78500
C19         C  0.07020645  0.41072093  0.00076346     0.79000
C20         C  0.00903203  0.01779991  0.87777479     0.78000
C21         C  0.08751803  0.07256785  0.98767503     0.78400
C22         C  0.51387062  0.49305963  0.10606263     0.79500
C23         C  0.45330438  0.09778534  0.98951016     0.78500
N24         N  0.21300409  0.23907920  0.01599488    -0.35200
N25         N  0.26789814  0.17851126  0.01400591    -0.55800
N26         N  0.30977498  0.25357550  0.02505452    -0.35200
N27         N  0.25470695  0.31368230  0.02871850    -0.55800
C28         C  0.19792094  0.19797025  0.02071055     0.28400
C29         C  0.19092035  0.26783922  0.02740178     0.28400
C30         C  0.33168044  0.21906367  0.02975617     0.28400
C31         C  0.32485766  0.28893302  0.03711535     0.28400
C32         C  0.24417078  0.15369749  0.00035767     0.37000
C33         C  0.29715061  0.16196968  0.00443146     0.37000
C34         C  0.22625085  0.33668878  0.01976572     0.37000
C35         C  0.27929952  0.34504020  0.02394429     0.37000
C36         C  0.16616027  0.20051912  0.03598239    -0.20500
C37         C  0.16171329  0.24470469  0.04004297    -0.20500
C38         C  0.36074295  0.23229244  0.04583828    -0.20500
C39         C  0.35648588  0.27631122  0.05038787    -0.20500
C40         C  0.25829598  0.12017909  0.98282283    -0.21600
C41         C  0.29209433  0.12542234  0.98544917    -0.21500
C42         C  0.23253192  0.38321151  0.01070175    -0.21600
C43         C  0.26632490  0.38853110  0.01330315    -0.21500
C44         C  0.21012980  0.16048769  0.00564164    -0.16900
C45         C  0.19487242  0.31551415  0.02121854    -0.16900
C46         C  0.31309625  0.33419849  0.02976011    -0.16900
C47         C  0.32802897  0.17883575  0.01425068    -0.16900
H48         H  0.14754635  0.17383808  0.04183046     0.16000
H49         H  0.13909835  0.25864774  0.04968782     0.16000
H50         H  0.38339080  0.21317522  0.05167135     0.16000
H51         H  0.37533478  0.29722425  0.06034725     0.16000
H52         H  0.24561307  0.09471769  0.96972390     0.14300
H53         H  0.31075059  0.10482348  0.97469282     0.14300
H54         H  0.21469950  0.41030056  0.00290034     0.14300
H55         H  0.27979062  0.42056639  0.00786019     0.14300
H56         H  0.23456278  0.24878254  0.99931454     0.27600
H57         H  0.28845714  0.25572868  0.00782517     0.27600
N58         N  0.97791012  0.97868527  0.68783631    -0.02100
C59         C  0.97382548  0.97208356  0.72908890     0.00500
C60         C  0.95916772  0.42943071  0.74480004    -0.22400
C61         C  0.95405971  0.40890321  0.71261423    -0.22600
C62         C  0.96541816  0.43867149  0.67806294     0.00400
H63         H  0.95514482  0.41415513  0.77669094     0.14200
H64         H  0.94527323  0.37429381  0.71450899     0.14200
N65         N  0.48393115  0.51884556  0.30223322    -0.02100
C66         C  0.97985535  0.02505405  0.26071014     0.00500
C67         C  0.96386855  0.06594229  0.24738332    -0.22400
C68         C  0.45957199  0.08536906  0.28051182    -0.22600
C69         C  0.47270403  0.05582130  0.31349843     0.00400
H70         H  0.95886808  0.08200766  0.21603390     0.14200
H71         H  0.45016992  0.11923896  0.28011737     0.14200
N72         N  0.48793351  0.31853339  0.48840020    -0.35200
N73         N  0.48696606  0.23998326  0.55874505    -0.55800
N74         N  0.48586984  0.17877087  0.50149923    -0.35200
N75         N  0.48987369  0.25704571  0.43110001    -0.55800
C76         C  0.48891416  0.34114124  0.51954279     0.28400
C77         C  0.49069547  0.34992760  0.45301729     0.28400
C78         C  0.48957351  0.14790500  0.53693543     0.28400
C79         C  0.49113134  0.15659907  0.47057511     0.28400
C80         C  0.48350658  0.27433511  0.57930744     0.37000
C81         C  0.48336973  0.20008291  0.58628176     0.37000
C82         C  0.48743679  0.29705457  0.40349398     0.37000
C83         C  0.48661306  0.22255637  0.41057476     0.37000
C84         C  0.49245926  0.38755419  0.50370587    -0.20500
C85         C  0.49367845  0.39304850  0.46202713    -0.20500
C86         C  0.49679126  0.10561637  0.52823655    -0.20500
C87         C  0.49783414  0.11109113  0.48661538    -0.20500
C88         C  0.47848026  0.25598189  0.62048643    -0.21600
C89         C  0.47840575  0.20910307  0.62486803    -0.21500
C90         C  0.48332157  0.28783043  0.36488830    -0.21600
C91         C  0.48274528  0.24085780  0.36935409    -0.21500
C92         C  0.48484064  0.32201538  0.56182794    -0.16900
C93         C  0.48881966  0.34172491  0.41262731    -0.16900
C94         C  0.48789047  0.17486877  0.42819727    -0.16900
C95         C  0.48522980  0.15568731  0.57711113    -0.16900
H96         H  0.49354889  0.41498606  0.52034230     0.16000
H97         H  0.49589078  0.42546816  0.44081409     0.16000
H98         H  0.50070388  0.07378150  0.54960541     0.16000
H99         H  0.50263258  0.08422639  0.47007170     0.16000
H100        H  0.47507971  0.27445071  0.64486661     0.14300
H101        H  0.47501038  0.18449845  0.65317724     0.14300
H102        H  0.48076103  0.31237591  0.33650260     0.14300
H103        H  0.47982811  0.22229376  0.34499326     0.14300
H104        H  0.48307963  0.28420285  0.49131193     0.27600
H105        H  0.47639914  0.21129918  0.49842554     0.27600
C106        C  0.48710518  0.38385109  0.37867710    -0.03900
C107        C  0.45691651  0.40728652  0.37039834    -0.01100
C108        C  0.45601777  0.45073076  0.34404810     0.03900
C109        C  0.48545621  0.47320636  0.32774122    -0.03900
C110        C  0.01531959  0.44874062  0.33374952    -0.01000
C111        C  0.01621652  0.40455947  0.35937852     0.03900
C112        C  0.42676864  0.38741096  0.39018774     0.38600
C113        C  0.04484413  0.46815870  0.31230401     0.38600
C114        C  0.04732637  0.38093488  0.36709425     0.37000
C115        C  0.42450108  0.47031720  0.33017846     0.37000
N116        N  0.07217113  0.36203171  0.37337141    -0.37800
N117        N  0.39939471  0.48500837  0.31772095    -0.37800
N118        N  0.06852261  0.48275611  0.29467985    -0.37300
N119        N  0.40267200  0.37200786  0.40625524    -0.37300
C120        C  0.47889448  0.07308988  0.35189534    -0.03900
C121        C  0.45141929  0.08502699  0.37399147    -0.01100
C122        C  0.45467592  0.11731709  0.39929163     0.03900
C123        C  0.48493854  0.14035805  0.40119829    -0.03900
C124        C  0.01296227  0.12635704  0.38176916    -0.01000
C125        C  0.01007210  0.09262976  0.35762341     0.03900
C126        C  0.41895347  0.06661833  0.36881508     0.38600
C127        C  0.04481897  0.14675952  0.38688445     0.38600
C128        C  0.03910773  0.08030706  0.33695700     0.37000
C129        C  0.42673091  0.12691862  0.42358010     0.37000
N130        N  0.06303029  0.07132001  0.32129621    -0.37800
N131        N  0.40464722  0.13409904  0.44347267    -0.37800
N132        N  0.07014162  0.16313477  0.39127370    -0.37300
N133        N  0.39248547  0.05329058  0.36531676    -0.37300
C134        C  0.48281565  0.11352638  0.61078890    -0.03900
C135        C  0.45251000  0.08964702  0.61855995    -0.01100
C136        C  0.45118155  0.04536737  0.64359823     0.03900
C137        C  0.48017340  0.02375174  0.66111323    -0.03900
C138        C  0.51009978  0.04916843  0.65571027    -0.01000
C139        C  0.51157323  0.09304760  0.62971939     0.03900
C140        C  0.42268719  0.11033251  0.59972426     0.38600
C141        C  0.03941809  0.03133615  0.67742992     0.38600
C142        C  0.54308316  0.11626340  0.62054860     0.37000
C143        C  0.41942915  0.02336221  0.65367515     0.37000
N144        N  0.06823859  0.13462230  0.61271032    -0.37800
N145        N  0.39376619  0.50722599  0.66043605    -0.37800
N146        N  0.06343188  0.01907136  0.69461351    -0.37300
N147        N  0.39893123  0.12683057  0.58455922    -0.37300
C148        C  0.47084549  0.42051728  0.64000251    -0.03900
C149        C  0.00303798  0.40731045  0.63030057    -0.01100
C150        C  0.00757725  0.37479001  0.60537044     0.03900
C151        C  0.48015714  0.35546587  0.58931903    -0.03900
C152        C  0.44818132  0.37009515  0.59701936    -0.01000
C153        C  0.44344003  0.40148344  0.62286411     0.03900
C154        C  0.03168648  0.42269476  0.64935748     0.38600
C155        C  0.41996267  0.35121427  0.57950452     0.38600
C156        C  0.41002684  0.41004350  0.63514893     0.37000
C157        C  0.04051139  0.35952706  0.59756831     0.37000
N158        N  0.38313107  0.41507791  0.64521245    -0.37800
N159        N  0.06674863  0.34710543  0.59156225    -0.37800
N160        N  0.39755742  0.33602510  0.56547708    -0.37300
N161        N  0.05556240  0.43311958  0.66392174    -0.37300
C162        C  0.35906581  0.15546794  0.00641978    -0.03900
C163        C  0.37692756  0.17127558  0.96979159    -0.01100
C164        C  0.40872093  0.15425811  0.96451645     0.03900
C165        C  0.42361433  0.12353187  0.99684500    -0.03900
C166        C  0.40605038  0.10896517  0.03402855    -0.01000
C167        C  0.37346723  0.12366365  0.03820903     0.03900
C168        C  0.36262516  0.20566597  0.93789272     0.38600
C169        C  0.42111867  0.07762042  0.06769161     0.38600
C170        C  0.35466791  0.10623522  0.07524929     0.37000
C171        C  0.42618531  0.16863170  0.92599715     0.37000
N172        N  0.33954279  0.09195352  0.10461430    -0.37800
N173        N  0.43995268  0.18023043  0.89514325    -0.37800
N174        N  0.43328025  0.05297303  0.09460958    -0.37300
N175        N  0.35106005  0.23334001  0.91279468    -0.37300
C176        C  0.09974173  0.38095784  0.00773343    -0.03900
C177        C  0.11437033  0.36501588  0.97477275    -0.01100
C178        C  0.14643612  0.34656754  0.97835316     0.03900
C179        C  0.16399132  0.34301972  0.01517577    -0.03900
C180        C  0.14937048  0.35834403  0.04825718    -0.01000
C181        C  0.11737248  0.37713048  0.04466621     0.03900
C182        C  0.09605753  0.36641258  0.93746572     0.38600
C183        C  0.16737183  0.35456016  0.08606036     0.38600
C184        C  0.10315941  0.39393998  0.07867642     0.37000
C185        C  0.16159098  0.33132874  0.94402247     0.37000
N186        N  0.09180035  0.40717538  0.10589851    -0.37800
N187        N  0.17381411  0.31939743  0.91663182    -0.37800
N188        N  0.18194840  0.35165166  0.11606785    -0.37300
N189        N  0.08144748  0.36683864  0.90781514    -0.37300
C190        C  0.12079732  0.09224034  0.99003772    -0.03900
C191        C  0.13207644  0.12825799  0.95903860    -0.01100
C192        C  0.16417717  0.14608154  0.96077768     0.03900
C193        C  0.18464439  0.12918010  0.99443782    -0.03900
C194        C  0.17437148  0.09069557  0.02367540    -0.01000
C195        C  0.14250873  0.07209357  0.02139050     0.03900
C196        C  0.10986313  0.14874593  0.92680455     0.38600
C197        C  0.19573433  0.07242316  0.05757240     0.38600
C198        C  0.13176775  0.03310034  0.05202226     0.37000
C199        C  0.17546113  0.18407358  0.92944840     0.37000
N200        N  0.12342698  0.00206686  0.07669144    -0.37800
N201        N  0.18451712  0.21433628  0.90442717    -0.37800
N202        N  0.21283433  0.05791643  0.08458327    -0.37300
N203        N  0.09184342  0.16523518  0.90147766    -0.37300
C204        C  0.40281061  0.41154898  0.01182598    -0.03900
C205        C  0.38543315  0.40212700  0.97785709    -0.01100
C206        C  0.35378912  0.38181988  0.98315650     0.03900
C207        C  0.33913624  0.37057409  0.02234044    -0.03900
C208        C  0.35491987  0.38377974  0.05557700    -0.01000
C209        C  0.38674486  0.40399849  0.05045816     0.03900
C210        C  0.40059154  0.41144336  0.93751475     0.38600
C211        C  0.33905191  0.37399110  0.09545346     0.38600
C212        C  0.40252362  0.41771314  0.08484281     0.37000
C213        C  0.33691205  0.37001891  0.94856367     0.37000
N214        N  0.41478226  0.42879863  0.11243816    -0.37800
N215        N  0.32339783  0.36060303  0.92103273    -0.37800
N216        N  0.32625149  0.36607703  0.12719422    -0.37300
N217        N  0.41258251  0.41898901  0.90529576    -0.37300
C218        C  0.49701646  0.50629271  0.23040455    -0.03900
C219        C  0.02307468  0.03068750  0.20650956    -0.01100
C220        C  0.03090007  0.02363476  0.16712329     0.03900
C221        C  0.51351547  0.49169971  0.15130935    -0.03900
C222        C  0.49465226  0.45873142  0.17882370    -0.01000
C223        C  0.48527784  0.46705983  0.21759922     0.03900
C224        C  0.03849918  0.06834946  0.22086228     0.38600
C225        C  0.48456008  0.41651923  0.16748132     0.38600
C226        C  0.46221061  0.43648374  0.24305633     0.37000
C227        C  0.05529894  0.05300673  0.14245914     0.37000
N228        N  0.44382581  0.41137292  0.26279597    -0.37800
N229        N  0.07464592  0.07657940  0.12281687    -0.37800
N230        N  0.47722114  0.38227294  0.15887229    -0.37300
N231        N  0.05083828  0.09878018  0.23159725    -0.37300
C232        C  0.00709542  0.01870532  0.83298253    -0.03900
C233        C  0.48116003  0.54231468  0.80905360    -0.01100
C234        C  0.47293379  0.53145851  0.77115502     0.03900
C235        C  0.99030522  0.99753153  0.75699626    -0.03900
C236        C  0.01850180  0.97796781  0.77809933    -0.01000
C237        C  0.02776281  0.99011297  0.81497192     0.03900
C238        C  0.46248366  0.57681737  0.82400863     0.38600
C239        C  0.03559061  0.94093493  0.76473052     0.38600
C240        C  0.05725338  0.97026602  0.83542252     0.37000
C241        C  0.44503410  0.55317084  0.74843419     0.37000
N242        N  0.08109356  0.95490540  0.85124302    -0.37800
N243        N  0.42272558  0.57087743  0.73062428    -0.37800
N244        N  0.04892022  0.91077297  0.75486070    -0.38600
N245        N  0.44754286  0.60442412  0.83580490    -0.37300
Zn246      Zn  0.47309371  0.51611989  0.95769871     1.49700
Zn247      Zn  0.50612646  0.94586050  0.03320943     1.49400
Zn248      Zn  0.04837197  0.50287034  0.95518667     1.49100
Zn249      Zn  0.51788145  0.55488788  0.02131529     1.49500
O250        O  0.01150533  0.50474224  0.99260173    -1.82700
O251        O  0.43833468  0.96902946  0.97685469    -0.73400
O252        O  0.04504115  0.90422680  0.02638528    -0.73200
O253        O  0.03659758  0.51339319  0.89552461    -0.72700
O254        O  0.45909128  0.91975966  0.02934843    -0.73400
O255        O  0.48234500  0.51973642  0.89770217    -0.73000
O256        O  0.07128359  0.94331293  0.97125204    -0.73600
O257        O  0.06398646  0.58257811  0.00980558    -0.72900
O258        O  0.51004641  0.95508155  0.09180007    -0.73700
O259        O  0.08360164  0.54625113  0.96285645    -0.73100
O260        O  0.51664875  0.53163791  0.08191115    -0.73600
O261        O  0.47899228  0.59865953  0.01134585    -0.73500
O262        O  0.44979169  0.57152019  0.96525669    -0.73300
C263        C  0.43507799  0.93443816  0.00571465     0.78500
C264        C  0.06930183  0.90952015  0.00105654     0.79000
C265        C  0.00895767  0.51840215  0.87747791     0.78000
C266        C  0.08728830  0.57379708  0.98670501     0.78400
C267        C  0.51437403  0.99086971  0.10623629     0.79500
C268        C  0.45325930  0.59864299  0.98954121     0.78500
N269        N  0.21260427  0.73934792  0.01584828    -0.35200
N270        N  0.26770126  0.67889273  0.01393533    -0.55800
N271        N  0.30932463  0.75381125  0.02582430    -0.35200
N272        N  0.25400575  0.81384465  0.02926827    -0.55800
C273        C  0.19762888  0.69820940  0.02032149     0.28400
C274        C  0.19043254  0.76784596  0.02746730     0.28400
C275        C  0.33151306  0.71966430  0.02991160     0.28400
C276        C  0.32439177  0.78943158  0.03746477     0.28400
C277        C  0.24405245  0.65421110  0.99996132     0.37000
C278        C  0.29703796  0.66239113  0.00455762     0.37000
C279        C  0.22551932  0.83679392  0.02032538     0.37000
C280        C  0.27853595  0.84527310  0.02469547     0.37000
C281        C  0.16584431  0.70047836  0.03563853    -0.20500
C282        C  0.16128770  0.74451424  0.04002238    -0.20500
C283        C  0.36075095  0.73341901  0.04523950    -0.20500
C284        C  0.35629312  0.77733349  0.04993091    -0.20500
C285        C  0.25830268  0.62078154  0.98242822    -0.21600
C286        C  0.29209007  0.62595407  0.98539591    -0.21500
C287        C  0.23170548  0.88333528  0.01155025    -0.21600
C288        C  0.26547666  0.88873673  0.01427368    -0.21500
C289        C  0.20996398  0.66098242  0.00500639    -0.16900
C290        C  0.19420679  0.81551080  0.02142537    -0.16900
C291        C  0.31237982  0.83458006  0.03024408    -0.16900
C292        C  0.32789880  0.67933481  0.01449237    -0.16900
H293        H  0.14727514  0.67373773  0.04132146     0.16000
H294        H  0.13863029  0.75826092  0.04976797     0.16000
H295        H  0.38365481  0.71480362  0.05039435     0.16000
H296        H  0.37518926  0.79861317  0.05931407     0.16000
H297        H  0.24570864  0.59543545  0.96909160     0.14300
H298        H  0.31081210  0.60543155  0.97466812     0.14300
H299        H  0.21383205  0.91038055  0.00381488     0.14300
H300        H  0.27888172  0.92081569  0.00899427     0.14300
H301        H  0.23411669  0.74926677  0.99913230     0.27600
H302        H  0.28771480  0.75563209  0.00921461     0.27600
N303        N  0.97758714  0.47798933  0.68790986    -0.02100
C304        C  0.97371342  0.47114283  0.72922906     0.00500
C305        C  0.95901771  0.93057698  0.74473344    -0.22400
C306        C  0.95397309  0.90989322  0.71264100    -0.22600
C307        C  0.96563718  0.93939473  0.67809701     0.00400
H308        H  0.95480238  0.91551067  0.77663305     0.14200
H309        H  0.94501827  0.87535005  0.71462303     0.14200
N310        N  0.48503048  0.01765791  0.30184900    -0.02100
C311        C  0.97850192  0.52650676  0.26115066     0.00500
C312        C  0.96185948  0.56698441  0.24836618    -0.22400
C313        C  0.45734353  0.58582024  0.28183533    -0.22600
C314        C  0.47108735  0.55636672  0.31445058     0.00400
H315        H  0.95651694  0.58323308  0.21715962     0.14200
H316        H  0.44751685  0.61937739  0.28185170     0.14200
N317        N  0.48802894  0.81856330  0.48917089    -0.35200
N318        N  0.48853114  0.74006449  0.55980176    -0.55800
N319        N  0.48709448  0.67861056  0.50269481    -0.35200
N320        N  0.48981848  0.75680706  0.43211341    -0.55800
C321        C  0.48948996  0.84127222  0.52019272     0.28400
C322        C  0.49036988  0.84979987  0.45365619     0.28400
C323        C  0.49042900  0.64767199  0.53812930     0.28400
C324        C  0.49139396  0.65627083  0.47171351     0.28400
C325        C  0.48493919  0.77453142  0.58022649     0.37000
C326        C  0.48490876  0.70018491  0.58741099     0.37000
C327        C  0.48663022  0.79664124  0.40450642     0.37000
C328        C  0.48617220  0.72225437  0.41177892     0.37000
C329        C  0.49271491  0.88769523  0.50411793    -0.20500
C330        C  0.49337658  0.89301855  0.46242624    -0.20500
C331        C  0.49651809  0.60507570  0.52937234    -0.20500
C332        C  0.49722171  0.61049923  0.48772433    -0.20500
C333        C  0.47986298  0.75626987  0.62141908    -0.21600
C334        C  0.47983981  0.70935912  0.62592608    -0.21500
C335        C  0.48159461  0.78727611  0.36612581    -0.21600
C336        C  0.48123131  0.74034850  0.37071710    -0.21500
C337        C  0.48601493  0.82223253  0.56258739    -0.16900
C338        C  0.48821708  0.84132476  0.41338435    -0.16900
C339        C  0.48782897  0.67465817  0.42936972    -0.16900
C340        C  0.48650858  0.65566503  0.57833226    -0.16900
H341        H  0.49396982  0.91524475  0.52060076     0.16000
H342        H  0.49526327  0.92536735  0.44105778     0.16000
H343        H  0.49976866  0.57304478  0.55070818     0.16000
H344        H  0.50104582  0.58340580  0.47115443     0.16000
H345        H  0.47627034  0.77481891  0.64570892     0.14300
H346        H  0.47628088  0.68483481  0.65425208     0.14300
H347        H  0.47821377  0.81169736  0.33783039     0.14300
H348        H  0.47766176  0.72167408  0.34654881     0.14300
H349        H  0.48303441  0.78423795  0.49230538     0.27600
H350        H  0.47839376  0.71149462  0.49969161     0.27600
C351        C  0.48686953  0.88309703  0.37912701    -0.03900
C352        C  0.45683687  0.90659073  0.37001547    -0.01100
C353        C  0.45637733  0.94997744  0.34350829     0.03900
C354        C  0.48609112  0.97214438  0.32770546    -0.03900
C355        C  0.01579299  0.94731120  0.33432531    -0.01000
C356        C  0.01619076  0.90311144  0.35994055     0.03900
C357        C  0.42634824  0.88639493  0.38857041     0.38600
C358        C  0.04572391  0.96645580  0.31373805     0.38600
C359        C  0.04686955  0.87829600  0.36721895     0.37000
C360        C  0.42506878  0.96981235  0.32911410     0.37000
N361        N  0.07124476  0.85814208  0.37302873    -0.37800
N362        N  0.40005342  0.98449578  0.31632906    -0.37800
N363        N  0.06981106  0.98082417  0.29697641    -0.37300
N364        N  0.40199831  0.87047950  0.40352762    -0.37300
C365        C  0.47785503  0.57355048  0.35274539    -0.03900
C366        C  0.45077035  0.58469589  0.37591073    -0.01100
C367        C  0.45426675  0.61715303  0.40100375     0.03900
C368        C  0.48451002  0.64041937  0.40224624    -0.03900
C369        C  0.01217119  0.62734651  0.38158136    -0.01000
C370        C  0.00901434  0.59361603  0.35752631     0.03900
C371        C  0.41858948  0.56442806  0.37286332     0.38600
C372        C  0.04384897  0.64911122  0.38488290     0.38600
C373        C  0.03784502  0.58125143  0.33652713     0.37000
C374        C  0.42654304  0.62705316  0.42551170     0.37000
N375        N  0.06169196  0.57207203  0.32083403    -0.37800
N376        N  0.40467537  0.63476484  0.44548894    -0.37800
N377        N  0.06901831  0.66671156  0.38759412    -0.37300
N378        N  0.39237030  0.54930833  0.37149966    -0.37300
C379        C  0.48376304  0.61351290  0.61204181    -0.03900
C380        C  0.45318305  0.59036767  0.61992578    -0.01100
C381        C  0.45149273  0.54554279  0.64397055     0.03900
C382        C  0.48027809  0.52312551  0.66131783    -0.03900
C383        C  0.51045589  0.54796654  0.65615630    -0.01000
C384        C  0.51237603  0.59201931  0.63048249     0.03900
C385        C  0.42340133  0.61259587  0.60245148     0.38600
C386        C  0.03961310  0.52929712  0.67775762     0.38600
C387        C  0.54416329  0.61440267  0.62119147     0.37000
C388        C  0.41959330  0.52362342  0.65291550     0.37000
N389        N  0.06955531  0.63205187  0.61326017    -0.37800
N390        N  0.39377735  0.00686977  0.66234542    -0.37800
N391        N  0.06350738  0.51638886  0.69491337    -0.37300
N392        N  0.39967356  0.63048633  0.58854785    -0.37300
C393        C  0.47113775  0.92113322  0.64012714    -0.03900
C394        C  0.00346617  0.90913021  0.62980358    -0.01100
C395        C  0.00835515  0.87680756  0.60476526     0.03900
C396        C  0.48111611  0.85579162  0.58992958    -0.03900
C397        C  0.44895136  0.86917148  0.59833106    -0.01000
C398        C  0.44391167  0.90118037  0.62349405     0.03900
C399        C  0.03202906  0.92562571  0.64821244     0.38600
C400        C  0.42089795  0.84849802  0.58210745     0.38600
C401        C  0.41039884  0.91000736  0.63522737     0.37000
C402        C  0.04154998  0.86386825  0.59533731     0.37000
N403        N  0.38341201  0.91548348  0.64468472    -0.37800
N404        N  0.06807959  0.85363118  0.58797105    -0.37800
N405        N  0.39867006  0.83174973  0.56914866    -0.37300
N406        N  0.05590817  0.93685047  0.66223023    -0.37300
C407        C  0.35902657  0.65604802  0.00672733    -0.03900
C408        C  0.37647417  0.67113136  0.96965442    -0.01100
C409        C  0.40834451  0.65438356  0.96430698     0.03900
C410        C  0.42374288  0.62471800  0.99690488    -0.03900
C411        C  0.40678050  0.61132290  0.03464341    -0.01000
C412        C  0.37409462  0.62558211  0.03897632     0.03900
C413        C  0.36175282  0.70465191  0.93740286     0.38600
C414        C  0.42262684  0.58176309  0.06881986     0.38600
C415        C  0.35595158  0.60926369  0.07674259     0.37000
C416        C  0.42545950  0.66805165  0.92546751     0.37000
N417        N  0.34141253  0.59586831  0.10675409    -0.37800
N418        N  0.43903128  0.67906427  0.89441345    -0.37800
N419        N  0.43539650  0.55860377  0.09617079    -0.37300
N420        N  0.34992128  0.73166968  0.91197721    -0.37300
C421        C  0.09869529  0.87968081  0.00829112    -0.03900
C422        C  0.11302878  0.86311162  0.97556414    -0.01100
C423        C  0.14518932  0.84504339  0.97894337     0.03900
C424        C  0.16321059  0.84276833  0.01531732    -0.03900
C425        C  0.14884697  0.85879231  0.04819320    -0.01000
C426        C  0.11661584  0.87680388  0.04489769     0.03900
C427        C  0.09424323  0.86348686  0.93876452     0.38600
C428        C  0.16736105  0.85657805  0.08544274     0.38600
C429        C  0.10232351  0.89348167  0.07893807     0.37000
C430        C  0.15989717  0.82884277  0.94485905     0.37000
N431        N  0.09087071  0.90647481  0.10623728    -0.37800
N432        N  0.17165123  0.81612634  0.91759356    -0.37800
N433        N  0.18240174  0.85500797  0.11494537    -0.37300
N434        N  0.07915114  0.86317179  0.90960404    -0.37300
C435        C  0.12055942  0.59333032  0.98908972    -0.03900
C436        C  0.13221303  0.62870492  0.95775198    -0.01100
C437        C  0.16431801  0.64643926  0.95973786     0.03900
C438        C  0.18454067  0.62967583  0.99370358    -0.03900
C439        C  0.17383651  0.59175086  0.02330277    -0.01000
C440        C  0.14184114  0.57362838  0.02104662     0.03900
C441        C  0.11030951  0.64876314  0.92499447     0.38600
C442        C  0.19475758  0.57392297  0.05775845     0.38600
C443        C  0.13040166  0.53577990  0.05244804     0.37000
C444        C  0.17573681  0.68438784  0.92845483     0.37000
N445        N  0.12135058  0.50576494  0.07771674    -0.37800
N446        N  0.18482403  0.71467329  0.90347750    -0.37800
N447        N  0.21145866  0.55978744  0.08526883    -0.37300
N448        N  0.09250402  0.66485150  0.89926298    -0.37300
C449        C  0.40180779  0.91236995  0.01182860    -0.03900
C450        C  0.38478086  0.90194270  0.97803174    -0.01100
C451        C  0.35319499  0.88149355  0.98337066     0.03900
C452        C  0.33827130  0.87112587  0.02244916    -0.03900
C453        C  0.35374767  0.88524304  0.05545960    -0.01000
C454        C  0.38546239  0.90579259  0.05023887     0.03900
C455        C  0.40031908  0.91022065  0.93791988     0.38600
C456        C  0.33778449  0.87582203  0.09527953     0.38600
C457        C  0.40090111  0.92076760  0.08425125     0.37000
C458        C  0.33681338  0.86822708  0.94908173     0.37000
N459        N  0.41295253  0.93289349  0.11148178    -0.37800
N460        N  0.32372510  0.85751225  0.92183694    -0.37800
N461        N  0.32490219  0.86808926  0.12697318    -0.37300
N462        N  0.41264451  0.91690856  0.90589777    -0.37300
C463        C  0.49821152  0.00408624  0.23035691    -0.03900
C464        C  0.02137654  0.53365832  0.20637175    -0.01100
C465        C  0.02916686  0.52701560  0.16684069     0.03900
C466        C  0.51461261  0.98890684  0.15150963    -0.03900
C467        C  0.49529968  0.95645306  0.17888476    -0.01000
C468        C  0.48578941  0.96526898  0.21741974     0.03900
C469        C  0.03674717  0.57112408  0.22106750     0.38600
C470        C  0.48482658  0.91437060  0.16757560     0.38600
C471        C  0.46140102  0.93619640  0.24201583     0.37000
C472        C  0.05297612  0.55733219  0.14205985     0.37000
N473        N  0.44178555  0.91240493  0.26088001    -0.37800
N474        N  0.07183659  0.58171098  0.12235516    -0.37800
N475        N  0.47721557  0.88020494  0.15900512    -0.37300
N476        N  0.04920865  0.60127206  0.23211348    -0.37300
C477        C  0.00706081  0.51904914  0.83269162    -0.03900
C478        C  0.48117470  0.04217552  0.80948298    -0.01100
C479        C  0.47307033  0.03188277  0.77135139     0.03900
C480        C  0.99005795  0.49672492  0.75718857    -0.03900
C481        C  0.01830112  0.47743612  0.77838322    -0.01000
C482        C  0.02780556  0.49045338  0.81479263     0.03900
C483        C  0.46199414  0.07580476  0.82504390     0.38600
C484        C  0.03535849  0.44005404  0.76555778     0.38600
C485        C  0.05798737  0.47217502  0.83452115     0.37000
C486        C  0.44502851  0.05350994  0.74884943     0.37000
N487        N  0.08247198  0.45826432  0.84958789    -0.37800
N488        N  0.42258557  0.07102715  0.73119781    -0.37800
N489        N  0.04871491  0.40962628  0.75618595    -0.38600
N490        N  0.44652059  0.10256477  0.83734758    -0.37300
Zn491      Zn  0.97305657  0.01560613  0.95770655     1.49700
Zn492      Zn  0.00682639  0.44683694  0.03334774     1.49400
Zn493      Zn  0.54834270  0.00218084  0.95559698     1.49100
Zn494      Zn  0.01789606  0.05361761  0.02188107     1.49500
O495        O  0.51136142  0.00391123  0.99280399    -1.82700
O496        O  0.93896758  0.46871611  0.97684838    -0.73400
O497        O  0.54619900  0.40561914  0.02649447    -0.73200
O498        O  0.53672714  0.01330551  0.89575327    -0.72700
O499        O  0.96005648  0.41981706  0.02936625    -0.73400
O500        O  0.98239091  0.01852561  0.89803502    -0.73000
O501        O  0.57177601  0.44426443  0.97070415    -0.73600
O502        O  0.56406039  0.08160990  0.01045525    -0.72900
O503        O  0.01016176  0.45693098  0.09191648    -0.73700
O504        O  0.58387484  0.04495615  0.96387841    -0.73100
O505        O  0.01720780  0.02964192  0.08239204    -0.73600
O506        O  0.97859316  0.09683936  0.01224772    -0.73500
O507        O  0.95028877  0.07167567  0.96427959    -0.73300
C508        C  0.93596471  0.43404854  0.00568708     0.78500
C509        C  0.57020635  0.41072060  0.00076272     0.79000
C510        C  0.50903300  0.01780034  0.87777476     0.78000
C511        C  0.58751795  0.07256871  0.98767544     0.78400
C512        C  0.01386988  0.49305969  0.10606298     0.79500
C513        C  0.95330454  0.09778513  0.98951036     0.78500
N514        N  0.71300435  0.23907895  0.01599450    -0.35200
N515        N  0.76789839  0.17851084  0.01400612    -0.55800
N516        N  0.80977519  0.25357543  0.02505391    -0.35200
N517        N  0.75470713  0.31368235  0.02871733    -0.55800
C518        C  0.69792128  0.19796990  0.02071063     0.28400
C519        C  0.69092058  0.26783903  0.02740120     0.28400
C520        C  0.83168075  0.21906371  0.02975555     0.28400
C521        C  0.82485800  0.28893333  0.03711393     0.28400
C522        C  0.74417105  0.15369696  0.00035800     0.37000
C523        C  0.79715085  0.16196917  0.00443179     0.37000
C524        C  0.72625096  0.33668874  0.01976473     0.37000
C525        C  0.77929964  0.34504029  0.02394308     0.37000
C526        C  0.66616066  0.20051877  0.03598264    -0.20500
C527        C  0.66171361  0.24470446  0.04004276    -0.20500
C528        C  0.86074347  0.23229296  0.04583684    -0.20500
C529        C  0.85648644  0.27631185  0.05038596    -0.20500
C530        C  0.75829624  0.12017835  0.98282344    -0.21600
C531        C  0.79209458  0.12542159  0.98544980    -0.21500
C532        C  0.73253194  0.38321151  0.01070087    -0.21600
C533        C  0.76632492  0.38853117  0.01330219    -0.21500
C534        C  0.71013010  0.16048727  0.00564186    -0.16900
C535        C  0.69487254  0.31551399  0.02121762    -0.16900
C536        C  0.81309642  0.33419869  0.02975863    -0.16900
C537        C  0.82802920  0.17883540  0.01425074    -0.16900
H538        H  0.64754685  0.17383761  0.04183117     0.16000
H539        H  0.63909869  0.25864755  0.04968767     0.16000
H540        H  0.88339142  0.21317594  0.05166960     0.16000
H541        H  0.87533549  0.29722510  0.06034472     0.16000
H542        H  0.74561332  0.09471683  0.96972472     0.14300
H543        H  0.81075084  0.10482259  0.97469363     0.14300
H544        H  0.71469950  0.41030054  0.00289960     0.14300
H545        H  0.77979060  0.42056649  0.00785932     0.14300
H546        H  0.73456294  0.24878222  0.99931392     0.27600
H547        H  0.78845708  0.25572818  0.00782506     0.27600
N548        N  0.47791107  0.97868548  0.68783629    -0.02100
C549        C  0.47382635  0.97208373  0.72908890     0.00500
C550        C  0.45916804  0.42943081  0.74479958    -0.22400
C551        C  0.45406003  0.40890307  0.71261394    -0.22600
C552        C  0.46541817  0.43867130  0.67806246     0.00400
H553        H  0.45514541  0.41415532  0.77669058     0.14200
H554        H  0.44527370  0.37429355  0.71450893     0.14200
N555        N  0.98392964  0.51884514  0.30223352    -0.02100
C556        C  0.47985477  0.02505422  0.26070999     0.00500
C557        C  0.46386760  0.06594223  0.24738336    -0.22400
C558        C  0.95957291  0.08536925  0.28051170    -0.22600
C559        C  0.97270462  0.05582133  0.31349848     0.00400
H560        H  0.45886683  0.08200768  0.21603404     0.14200
H561        H  0.95017102  0.11923930  0.28011707     0.14200
N562        N  0.98793452  0.31853337  0.48840102    -0.35200
N563        N  0.98696607  0.23998317  0.55874586    -0.55800
N564        N  0.98586888  0.17877077  0.50149984    -0.35200
N565        N  0.98987254  0.25704548  0.43110059    -0.55800
C566        C  0.98891330  0.34114148  0.51954351     0.28400
C567        C  0.99069409  0.34992780  0.45301795     0.28400
C568        C  0.98957238  0.14790484  0.53693604     0.28400
C569        C  0.99113011  0.15659887  0.47057568     0.28400
C570        C  0.98350724  0.27433509  0.57930833     0.37000
C571        C  0.98336969  0.20008285  0.58628256     0.37000
C572        C  0.98743635  0.29705443  0.40349454     0.37000
C573        C  0.98661243  0.22255622  0.41057520     0.37000
C574        C  0.99245538  0.38755478  0.50370638    -0.20500
C575        C  0.99367428  0.39304910  0.46202766    -0.20500
C576        C  0.99678962  0.10561606  0.52823713    -0.20500
C577        C  0.99783246  0.11109081  0.48661595    -0.20500
C578        C  0.97848123  0.25598191  0.62048735    -0.21600
C579        C  0.97840621  0.20910310  0.62486892    -0.21500
C580        C  0.98332189  0.28783039  0.36488869    -0.21600
C581        C  0.98274551  0.24085775  0.36935440    -0.21500
C582        C  0.98484092  0.32201539  0.56182879    -0.16900
C583        C  0.98881877  0.34172479  0.41262798    -0.16900
C584        C  0.98788958  0.17486862  0.42819774    -0.16900
C585        C  0.98522914  0.15568725  0.57711180    -0.16900
H586        H  0.99354311  0.41498691  0.52034270     0.16000
H587        H  0.99588447  0.42546897  0.44081459     0.16000
H588        H  0.00070197  0.07378108  0.54960597     0.16000
H589        H  0.00263057  0.08422599  0.47007227     0.16000
H590        H  0.97508109  0.27445078  0.64486755     0.14300
H591        H  0.97501075  0.18449858  0.65317816     0.14300
H592        H  0.98076184  0.31237594  0.33650297     0.14300
H593        H  0.97982884  0.22229376  0.34499343     0.14300
H594        H  0.98308493  0.28420181  0.49131305     0.27600
H595        H  0.97639846  0.21129921  0.49842625     0.27600
C596        C  0.98710407  0.38385081  0.37867761    -0.03900
C597        C  0.95691533  0.40728608  0.37039881    -0.01100
C598        C  0.95601646  0.45073031  0.34404857     0.03900
C599        C  0.98545483  0.47320594  0.32774151    -0.03900
C600        C  0.51532094  0.44874104  0.33374944    -0.01000
C601        C  0.51621771  0.40455982  0.35937831     0.03900
C602        C  0.92676754  0.38741046  0.39018837     0.38600
C603        C  0.54484559  0.46815920  0.31230423     0.38600
C604        C  0.54732754  0.38093526  0.36709424     0.37000
C605        C  0.92449969  0.47031665  0.33017907     0.37000
N606        N  0.57217240  0.36203233  0.37337143    -0.37800
N607        N  0.89939326  0.48500761  0.31772157    -0.37800
N608        N  0.56852419  0.48275670  0.29468039    -0.37300
N609        N  0.90267101  0.37200731  0.40625616    -0.37300
C610        C  0.97889486  0.07308977  0.35189550    -0.03900
C611        C  0.95141953  0.08502622  0.37399174    -0.01100
C612        C  0.95467572  0.11731642  0.39929184     0.03900
C613        C  0.98493807  0.14035797  0.40119858    -0.03900
C614        C  0.51296258  0.12635633  0.38176912    -0.01000
C615        C  0.51007195  0.09262917  0.35762333     0.03900
C616        C  0.91895396  0.06661676  0.36881553     0.38600
C617        C  0.54481964  0.14675755  0.38688502     0.38600
C618        C  0.53910736  0.08030608  0.33695677     0.37000
C619        C  0.92673049  0.12691741  0.42358018     0.37000
N620        N  0.56302980  0.07131878  0.32129588    -0.37800
N621        N  0.90464657  0.13409734  0.44347264    -0.37800
N622        N  0.57014264  0.16313155  0.39127490    -0.37300
N623        N  0.89248610  0.05328846  0.36531741    -0.37300
C624        C  0.98281486  0.11352635  0.61078951    -0.03900
C625        C  0.95250926  0.08964677  0.61855999    -0.01100
C626        C  0.95118077  0.04536707  0.64359810     0.03900
C627        C  0.98017254  0.02375156  0.66111337    -0.03900
C628        C  0.01009884  0.04916850  0.65571108    -0.01000
C629        C  0.01157235  0.09304779  0.62972048     0.03900
C630        C  0.92268656  0.11033220  0.59972396     0.38600
C631        C  0.53941914  0.03133600  0.67742881     0.38600
C632        C  0.04308225  0.11626393  0.62055048     0.37000
C633        C  0.91942838  0.02336169  0.65367456     0.37000
N634        N  0.56823946  0.13462159  0.61270760    -0.37800
N635        N  0.89376611  0.50722727  0.66043917    -0.37800
N636        N  0.56343301  0.01907101  0.69461212    -0.37300
N637        N  0.89893075  0.12683038  0.58455859    -0.37300
C638        C  0.97084588  0.42051752  0.64000307    -0.03900
C639        C  0.50303763  0.40731155  0.63029876    -0.01100
C640        C  0.50757694  0.37479131  0.60536842     0.03900
C641        C  0.98015744  0.35546576  0.58931996    -0.03900
C642        C  0.94818173  0.37009641  0.59701907    -0.01000
C643        C  0.94344045  0.40148488  0.62286363     0.03900
C644        C  0.53168632  0.42269690  0.64935465     0.38600
C645        C  0.91996308  0.35121666  0.57950323     0.38600
C646        C  0.91002720  0.41004624  0.63514735     0.37000
C647        C  0.54051119  0.35952998  0.59756473     0.37000
N648        N  0.88313137  0.41508177  0.64521002    -0.37800
N649        N  0.56674858  0.34710980  0.59155735    -0.37800
N650        N  0.89755778  0.33602854  0.56547497    -0.37300
N651        N  0.55556244  0.43312243  0.66391807    -0.37300
C652        C  0.85906599  0.15546748  0.00641996    -0.03900
C653        C  0.87692754  0.17127469  0.96979154    -0.01100
C654        C  0.90872103  0.15425758  0.96451653     0.03900
C655        C  0.92361461  0.12353184  0.99684525    -0.03900
C656        C  0.90605078  0.10896541  0.03402891    -0.01000
C657        C  0.87346761  0.12366372  0.03820944     0.03900
C658        C  0.86262472  0.20566416  0.93789227     0.38600
C659        C  0.92111919  0.07762092  0.06769199     0.38600
C660        C  0.85466845  0.10623554  0.07524990     0.37000
C661        C  0.92618531  0.16863095  0.92599713     0.37000
N662        N  0.83954359  0.09195398  0.10461517    -0.37800
N663        N  0.93995249  0.18022948  0.89514306    -0.37800
N664        N  0.93328085  0.05297363  0.09460994    -0.37300
N665        N  0.85105920  0.23333741  0.91279390    -0.37300
C666        C  0.59974170  0.38095749  0.00773269    -0.03900
C667        C  0.61437022  0.36501530  0.97477207    -0.01100
C668        C  0.64643596  0.34656678  0.97835244     0.03900
C669        C  0.66399136  0.34301942  0.01517487    -0.03900
C670        C  0.64937068  0.35834414  0.04825615    -0.01000
C671        C  0.61737261  0.37713043  0.04466532     0.03900
C672        C  0.59605741  0.36641206  0.93746507     0.38600
C673        C  0.66737215  0.35456055  0.08605917     0.38600
C674        C  0.60315970  0.39394030  0.07867544     0.37000
C675        C  0.66159064  0.33132768  0.94402180     0.37000
N676        N  0.59180071  0.40717623  0.10589730    -0.37800
N677        N  0.67381352  0.31939618  0.91663109    -0.37800
N678        N  0.68194874  0.35165224  0.11606662    -0.37300
N679        N  0.58144734  0.36683815  0.90781452    -0.37300
C680        C  0.62079720  0.09224124  0.99003827    -0.03900
C681        C  0.63207641  0.12825887  0.95903918    -0.01100
C682        C  0.66417740  0.14608162  0.96077792     0.03900
C683        C  0.68464464  0.12917985  0.99443793    -0.03900
C684        C  0.67437157  0.09069544  0.02367549    -0.01000
C685        C  0.64250864  0.07209396  0.02139083     0.03900
C686        C  0.60986300  0.14874753  0.92680552     0.38600
C687        C  0.69573451  0.07242258  0.05757223     0.38600
C688        C  0.63176748  0.03310094  0.05202273     0.37000
C689        C  0.67546170  0.18407319  0.92944838     0.37000
N690        N  0.62342657  0.00206769  0.07669207    -0.37800
N691        N  0.68451794  0.21433543  0.90442684    -0.37800
N692        N  0.71283459  0.05791551  0.08458290    -0.37300
N693        N  0.59184323  0.16523729  0.90147889    -0.37300
C694        C  0.90281067  0.41154922  0.01182518    -0.03900
C695        C  0.88543338  0.40212734  0.97785615    -0.01100
C696        C  0.85378931  0.38182036  0.98315532     0.03900
C697        C  0.83913629  0.37057442  0.02233915    -0.03900
C698        C  0.85491987  0.38377976  0.05557587    -0.01000
C699        C  0.88674486  0.40399847  0.05045727     0.03900
C700        C  0.90059198  0.41144356  0.93751393     0.38600
C701        C  0.83905201  0.37399042  0.09545234     0.38600
C702        C  0.90252354  0.41771265  0.08484219     0.37000
C703        C  0.83691238  0.37001959  0.94856236     0.37000
N704        N  0.91478204  0.42879772  0.11243781    -0.37800
N705        N  0.82339836  0.36060398  0.92103117    -0.37800
N706        N  0.82625172  0.36607561  0.12719316    -0.37300
N707        N  0.91258313  0.41898916  0.90529504    -0.37300
C708        C  0.99701484  0.50629240  0.23040484    -0.03900
C709        C  0.52307418  0.03068815  0.20650936    -0.01100
C710        C  0.53090003  0.02363492  0.16712340     0.03900
C711        C  0.01351433  0.49169962  0.15130972    -0.03900
C712        C  0.99465070  0.45873147  0.17882369    -0.01000
C713        C  0.98527597  0.46705987  0.21759911     0.03900
C714        C  0.53849808  0.06835081  0.22086170     0.38600
C715        C  0.98455838  0.41651943  0.16748109     0.38600
C716        C  0.96220825  0.43648410  0.24305577     0.37000
C717        C  0.55529937  0.05300629  0.14245957     0.37000
N718        N  0.94382313  0.41137349  0.26279508    -0.37800
N719        N  0.57464693  0.07657829  0.12281770    -0.37800
N720        N  0.97721927  0.38227327  0.15887196    -0.37300
N721        N  0.55083658  0.09878217  0.23159632    -0.37300
C722        C  0.50709658  0.01870574  0.83298248    -0.03900
C723        C  0.98116113  0.54231526  0.80905374    -0.01100
C724        C  0.97293445  0.53145852  0.77115555     0.03900
C725        C  0.49030615  0.99753160  0.75699638    -0.03900
C726        C  0.51850266  0.97796773  0.77809954    -0.01000
C727        C  0.52776380  0.99011308  0.81497200     0.03900
C728        C  0.96248551  0.57681904  0.82400826     0.38600
C729        C  0.53559114  0.94093437  0.76473110     0.38600
C730        C  0.55725442  0.97026628  0.83542256     0.37000
C731        C  0.94503459  0.55317077  0.74843509     0.37000
N732        N  0.58109464  0.95490575  0.85124302    -0.37800
N733        N  0.92272585  0.57087743  0.73062574    -0.37800
N734        N  0.54892029  0.91077186  0.75486163    -0.38600
N735        N  0.94754536  0.60442672  0.83580404    -0.37300
Zn736      Zn  0.97309386  0.51612000  0.95769869     1.49700
Zn737      Zn  0.00612632  0.94585997  0.03320944     1.49400
Zn738      Zn  0.54837184  0.50287029  0.95518614     1.49100
Zn739      Zn  0.01788151  0.55488808  0.02131564     1.49500
O740        O  0.51150532  0.50474210  0.99260139    -1.82700
O741        O  0.93833429  0.96902908  0.97685519    -0.73400
O742        O  0.54504144  0.90422739  0.02638561    -0.73200
O743        O  0.53659701  0.51339327  0.89552419    -0.72700
O744        O  0.95909111  0.91975919  0.02934871    -0.73400
O745        O  0.98234559  0.51973678  0.89770220    -0.73000
O746        O  0.57128418  0.94331349  0.97125261    -0.73600
O747        O  0.56398633  0.58257793  0.00980504    -0.72900
O748        O  0.01004637  0.95508121  0.09180006    -0.73700
O749        O  0.58360170  0.54625085  0.96285607    -0.73100
O750        O  0.01664843  0.53163798  0.08191156    -0.73600
O751        O  0.97899218  0.59865949  0.01134607    -0.73500
O752        O  0.94979182  0.57152019  0.96525666    -0.73300
C753        C  0.93507774  0.93443772  0.00571510     0.78500
C754        C  0.56930227  0.90952071  0.00105708     0.79000
C755        C  0.50895700  0.51840195  0.87747766     0.78000
C756        C  0.58728826  0.57379684  0.98670462     0.78400
C757        C  0.01437396  0.99086947  0.10623618     0.79500
C758        C  0.95325928  0.59864290  0.98954128     0.78500
N759        N  0.71260421  0.73934751  0.01584868    -0.35200
N760        N  0.76770112  0.67889220  0.01393557    -0.55800
N761        N  0.80932451  0.75381038  0.02582500    -0.35200
N762        N  0.75400573  0.81384397  0.02926917    -0.55800
C763        C  0.69762887  0.69820896  0.02032201     0.28400
C764        C  0.69043255  0.76784553  0.02746787     0.28400
C765        C  0.83151284  0.71966331  0.02991243     0.28400
C766        C  0.82439156  0.78943047  0.03746599     0.28400
C767        C  0.74405229  0.65421086  0.99996127     0.37000
C768        C  0.79703780  0.66239071  0.00455767     0.37000
C769        C  0.72551940  0.83679337  0.02032597     0.37000
C770        C  0.77853601  0.84527228  0.02469634     0.37000
C771        C  0.66584437  0.70047784  0.03563931    -0.20500
C772        C  0.66128774  0.74451377  0.04002310    -0.20500
C773        C  0.86075057  0.73341771  0.04524097    -0.20500
C774        C  0.85629274  0.77733211  0.04993266    -0.20500
C775        C  0.75830247  0.62078160  0.98242774    -0.21600
C776        C  0.79208985  0.62595399  0.98539554    -0.21500
C777        C  0.73170573  0.88333471  0.01155064    -0.21600
C778        C  0.76547691  0.88873598  0.01427427    -0.21500
C779        C  0.70996387  0.66098212  0.00500661    -0.16900
C780        C  0.69420683  0.81551037  0.02142603    -0.16900
C781        C  0.81237982  0.83457904  0.03024511    -0.16900
C782        C  0.82789863  0.67933413  0.01449270    -0.16900
H783        H  0.64727520  0.67373720  0.04132235     0.16000
H784        H  0.63863036  0.75826046  0.04976873     0.16000
H785        H  0.88365438  0.71480220  0.05039596     0.16000
H786        H  0.87518874  0.79861164  0.05931627     0.16000
H787        H  0.74570845  0.59543578  0.96909076     0.14300
H788        H  0.81081184  0.60543154  0.97466757     0.14300
H789        H  0.71383239  0.91038008  0.00381506     0.14300
H790        H  0.77888209  0.92081485  0.00899483     0.14300
H791        H  0.73411656  0.74926641  0.99913253     0.27600
H792        H  0.78771490  0.75563154  0.00921480     0.27600
N793        N  0.47758698  0.47798938  0.68790914    -0.02100
C794        C  0.47371339  0.47114306  0.72922835     0.00500
C795        C  0.45901868  0.93057703  0.74473336    -0.22400
C796        C  0.45397429  0.90989321  0.71264091    -0.22600
C797        C  0.46563839  0.93939483  0.67809697     0.00400
H798        H  0.45480331  0.91551065  0.77663297     0.14200
H799        H  0.44501960  0.87534999  0.71462291     0.14200
N800        N  0.98503086  0.01765774  0.30184917    -0.02100
C801        C  0.47850353  0.52650715  0.26115035     0.00500
C802        C  0.46186100  0.56698477  0.24836584    -0.22400
C803        C  0.95734208  0.58581982  0.28183570    -0.22600
C804        C  0.97108593  0.55636631  0.31445091     0.00400
H805        H  0.45651846  0.58323341  0.21715926     0.14200
H806        H  0.94751535  0.61937697  0.28185211     0.14200
N807        N  0.98802917  0.81856295  0.48917109    -0.35200
N808        N  0.98853090  0.74006424  0.55980205    -0.55800
N809        N  0.98709383  0.67861024  0.50269509    -0.35200
N810        N  0.98981783  0.75680669  0.43211354    -0.55800
C811        C  0.98948930  0.84127201  0.52019293     0.28400
C812        C  0.99036970  0.84979963  0.45365636     0.28400
C813        C  0.99042847  0.64767161  0.53812958     0.28400
C814        C  0.99139273  0.65627037  0.47171375     0.28400
C815        C  0.98493882  0.77453118  0.58022675     0.37000
C816        C  0.98490880  0.70018465  0.58741133     0.37000
C817        C  0.98663006  0.79664095  0.40450651     0.37000
C818        C  0.98617129  0.72225400  0.41177909     0.37000
C819        C  0.99271348  0.88769511  0.50411815    -0.20500
C820        C  0.99337546  0.89301842  0.46242647    -0.20500
C821        C  0.99651696  0.60507516  0.52937258    -0.20500
C822        C  0.99722009  0.61049863  0.48772457    -0.20500
C823        C  0.97986282  0.75626963  0.62141940    -0.21600
C824        C  0.97983993  0.70935889  0.62592644    -0.21500
C825        C  0.98159442  0.78727583  0.36612587    -0.21600
C826        C  0.98123061  0.74034819  0.37071722    -0.21500
C827        C  0.98601422  0.82223228  0.56258760    -0.16900
C828        C  0.98821722  0.84132450  0.41338447    -0.16900
C829        C  0.98782772  0.67465777  0.42936996    -0.16900
C830        C  0.98650860  0.65566476  0.57833260    -0.16900
H831        H  0.99396765  0.91524468  0.52060096     0.16000
H832        H  0.99526165  0.92536729  0.44105803     0.16000
H833        H  0.99976742  0.57304422  0.55070837     0.16000
H834        H  0.00104370  0.58340507  0.47115468     0.16000
H835        H  0.97627024  0.77481864  0.64570926     0.14300
H836        H  0.97628124  0.68483458  0.65425249     0.14300
H837        H  0.97821384  0.81169710  0.33783038     0.14300
H838        H  0.97766092  0.72167376  0.34654898     0.14300
H839        H  0.98303593  0.78423731  0.49230560     0.27600
H840        H  0.97839361  0.71149453  0.49969195     0.27600
C841        C  0.98686986  0.88309679  0.37912709    -0.03900
C842        C  0.95683718  0.90659031  0.37001515    -0.01100
C843        C  0.95637767  0.94997713  0.34350812     0.03900
C844        C  0.98609148  0.97214424  0.32770566    -0.03900
C845        C  0.51579258  0.94731117  0.33432475    -0.01000
C846        C  0.51619032  0.90311133  0.35993990     0.03900
C847        C  0.92634851  0.88639435  0.38856976     0.38600
C848        C  0.54572347  0.96645558  0.31373722     0.38600
C849        C  0.54686897  0.87829544  0.36721764     0.37000
C850        C  0.92506917  0.96981193  0.32911365     0.37000
N851        N  0.57124406  0.85814115  0.37302691    -0.37800
N852        N  0.90005382  0.98449505  0.31632824    -0.37800
N853        N  0.56981063  0.98082373  0.29697545    -0.37300
N854        N  0.90199858  0.87047870  0.40352674    -0.37300
C855        C  0.97785347  0.57354988  0.35274584    -0.03900
C856        C  0.95076871  0.58469593  0.37591070    -0.01100
C857        C  0.95426517  0.61715321  0.40100357     0.03900
C858        C  0.98450863  0.64041894  0.40224650    -0.03900
C859        C  0.51217250  0.62734782  0.38158035    -0.01000
C860        C  0.50901575  0.59361734  0.35752529     0.03900
C861        C  0.91858774  0.56442856  0.37286293     0.38600
C862        C  0.54384999  0.64911379  0.38488075     0.38600
C863        C  0.53784634  0.58125348  0.33652545     0.37000
C864        C  0.92654140  0.62705370  0.42551123     0.37000
N865        N  0.56169321  0.57207456  0.32083191    -0.37800
N866        N  0.90467366  0.63476538  0.44548834    -0.37800
N867        N  0.56901917  0.66671506  0.38759080    -0.37300
N868        N  0.89236849  0.54930922  0.37149879    -0.37300
C869        C  0.98376325  0.61351269  0.61204224    -0.03900
C870        C  0.95318317  0.59036788  0.61992703    -0.01100
C871        C  0.95149277  0.54554317  0.64397206     0.03900
C872        C  0.98027819  0.52312555  0.66131872    -0.03900
C873        C  0.01045613  0.54796617  0.65615648    -0.01000
C874        C  0.01237636  0.59201871  0.63048228     0.03900
C875        C  0.92340138  0.61259625  0.60245323     0.38600
C876        C  0.53961289  0.52929767  0.67775751     0.38600
C877        C  0.04416377  0.61440120  0.62119001     0.37000
C878        C  0.91959326  0.52362433  0.65291792     0.37000
N879        N  0.56955468  0.63205416  0.61326266    -0.37800
N880        N  0.89377663  0.00686895  0.66234450    -0.37800
N881        N  0.56350736  0.51638989  0.69491306    -0.37300
N882        N  0.89967355  0.63048687  0.58854997    -0.37300
C883        C  0.97113648  0.92113294  0.64012728    -0.03900
C884        C  0.50346738  0.90912979  0.62980384    -0.01100
C885        C  0.50835619  0.87680725  0.60476537     0.03900
C886        C  0.98111518  0.85579130  0.58992984    -0.03900
C887        C  0.94895034  0.86917060  0.59833162    -0.01000
C888        C  0.94391048  0.90117948  0.62349457     0.03900
C889        C  0.53203028  0.92562424  0.64821347     0.38600
C890        C  0.92089705  0.84849692  0.58210800     0.38600
C891        C  0.91039761  0.91000593  0.63522816     0.37000
C892        C  0.54155095  0.86386735  0.59533775     0.37000
N893        N  0.88341080  0.91548156  0.64468590    -0.37800
N894        N  0.56808049  0.85362967  0.58797187    -0.37800
N895        N  0.89866931  0.83174858  0.56914898    -0.37300
N896        N  0.55590930  0.93684811  0.66223207    -0.37300
C897        C  0.85902636  0.65604740  0.00672752    -0.03900
C898        C  0.87647390  0.67113081  0.96965460    -0.01100
C899        C  0.90834421  0.65438299  0.96430704     0.03900
C900        C  0.92374272  0.62471763  0.99690494    -0.03900
C901        C  0.90678026  0.61132217  0.03464338    -0.01000
C902        C  0.87409437  0.62558122  0.03897634     0.03900
C903        C  0.86175245  0.70465127  0.93740307     0.38600
C904        C  0.92262644  0.58176186  0.06881963     0.38600
C905        C  0.85595123  0.60926231  0.07674245     0.37000
C906        C  0.92545892  0.66805079  0.92546738     0.37000
N907        N  0.84141209  0.59586642  0.10675379    -0.37800
N908        N  0.93903039  0.67906332  0.89441310    -0.37800
N909        N  0.93539585  0.55860212  0.09617050    -0.37300
N910        N  0.84992081  0.73166898  0.91197747    -0.37300
C911        C  0.59869558  0.87968116  0.00829171    -0.03900
C912        C  0.61302900  0.86311189  0.97556471    -0.01100
C913        C  0.64518935  0.84504302  0.97894409     0.03900
C914        C  0.66321066  0.84276798  0.01531801    -0.03900
C915        C  0.64884710  0.85879209  0.04819389    -0.01000
C916        C  0.61661602  0.87680385  0.04489838     0.03900
C917        C  0.59424355  0.86348770  0.93876491     0.38600
C918        C  0.66736116  0.85657778  0.08544340     0.38600
C919        C  0.60232375  0.89348174  0.07893879     0.37000
C920        C  0.65989694  0.82884167  0.94486000     0.37000
N921        N  0.59087102  0.90647503  0.10623797    -0.37800
N922        N  0.67165082  0.81612469  0.91759470    -0.37800
N923        N  0.68240184  0.85500754  0.11494604    -0.37300
N924        N  0.57915148  0.86317307  0.90960434    -0.37300
C925        C  0.62055934  0.59333012  0.98908952    -0.03900
C926        C  0.63221300  0.62870481  0.95775189    -0.01100
C927        C  0.66431792  0.64643926  0.95973799     0.03900
C928        C  0.68454051  0.62967570  0.99370373    -0.03900
C929        C  0.67383626  0.59175083  0.02330297    -0.01000
C930        C  0.64184095  0.57362828  0.02104659     0.03900
C931        C  0.61030959  0.64876302  0.92499425     0.38600
C932        C  0.69475711  0.57392317  0.05775896     0.38600
C933        C  0.63040138  0.53577985  0.05244795     0.37000
C934        C  0.67573675  0.68438801  0.92845514     0.37000
N935        N  0.62135019  0.50576499  0.07771666    -0.37800
N936        N  0.68482404  0.71467349  0.90347789    -0.37800
N937        N  0.71145804  0.55978791  0.08526956    -0.37300
N938        N  0.59250415  0.66485146  0.89926272    -0.37300
C939        C  0.90180762  0.91236939  0.01182913    -0.03900
C940        C  0.88478086  0.90194149  0.97803241    -0.01100
C941        C  0.85319512  0.88149201  0.98337148     0.03900
C942        C  0.83827138  0.87112471  0.02244997    -0.03900
C943        C  0.85374756  0.88524249  0.05546023    -0.01000
C944        C  0.88546214  0.90579244  0.05023933     0.03900
C945        C  0.90031913  0.91021924  0.93792056     0.38600
C946        C  0.83778435  0.87582169  0.09528017     0.38600
C947        C  0.90090057  0.92076857  0.08425135     0.37000
C948        C  0.83681369  0.86822500  0.94908269     0.37000
N949        N  0.91295169  0.93289555  0.11148153    -0.37800
N950        N  0.82372562  0.85750995  0.92183786    -0.37800
N951        N  0.82490200  0.86808909  0.12697379    -0.37300
N952        N  0.91264455  0.91690705  0.90589845    -0.37300
C953        C  0.99821198  0.00408574  0.23035714    -0.03900
C954        C  0.52137788  0.53365879  0.20637109    -0.01100
C955        C  0.52916793  0.52701600  0.16683998     0.03900
C956        C  0.01461255  0.98890675  0.15150952    -0.03900
C957        C  0.99529970  0.95645291  0.17888472    -0.01000
C958        C  0.98578951  0.96526881  0.21741973     0.03900
C959        C  0.53674850  0.57112477  0.22106649     0.38600
C960        C  0.98482664  0.91437039  0.16757562     0.38600
C961        C  0.96140098  0.93619641  0.24201574     0.37000
C962        C  0.55297684  0.55733278  0.14205871     0.37000
N963        N  0.94178546  0.91240503  0.26087988    -0.37800
N964        N  0.57183699  0.58171172  0.12235359    -0.37800
N965        N  0.97721566  0.88020470  0.15900514    -0.37300
N966        N  0.54920998  0.60127305  0.23211199    -0.37300
C967        C  0.50705998  0.51904899  0.83269133    -0.03900
C968        C  0.98117330  0.04217478  0.80948322    -0.01100
C969        C  0.97306919  0.03188239  0.77135145     0.03900
C970        C  0.49005773  0.49672549  0.75718774    -0.03900
C971        C  0.51830104  0.47743710  0.77838230    -0.01000
C972        C  0.52780516  0.49045402  0.81479198     0.03900
C973        C  0.96199199  0.07580294  0.82504464     0.38600
C974        C  0.53535904  0.44005586  0.76555626     0.38600
C975        C  0.55798706  0.47217594  0.83452043     0.37000
C976        C  0.94502759  0.05350979  0.74884919     0.37000
N977        N  0.58247173  0.45826540  0.84958711    -0.37800
N978        N  0.92258486  0.07102706  0.73119718    -0.37800
N979        N  0.54871598  0.40962885  0.75618381    -0.38600
N980        N  0.94651768  0.10256190  0.83734878    -0.37300
loop_ 
_geom_bond_atom_site_label_1 
_geom_bond_atom_site_label_2 
_geom_bond_distance 
_geom_bond_site_symmetry_2 
_ccdc_geom_bond_type 
Zn1          O10   2.013       .  S
Zn1          O17   1.970       .  S
Zn1         O251   1.983   1_545  S
Zn1         O495   1.944       .  S
Zn2           O9   2.071       .  S
Zn2          O13   2.047       .  S
Zn2         O497   2.061       .  S
Zn2         O740   1.982   1_554  S
Zn3           O8   2.022       .  S
Zn3          O14   1.979       .  S
Zn3         O256   1.974   1_545  S
Zn3           O5   1.947       .  S
Zn4          O15   2.006       .  S
Zn4          O16   2.043       .  S
Zn4         O502   2.045       .  S
Zn4         O495   1.954   1_554  S
O5         Zn491   1.944   1_455  S
O5         Zn737   1.982   1_546  S
O5         Zn494   1.954   1_556  S
O6         Zn246   1.982       .  S
O6           C18   1.270   1_556  A
O7         Zn492   2.061       .  S
O7           C19   1.281       .  A
O8           C20   1.272       .  A
O9           C18   1.281       .  A
O10         C510   1.272       .  A
O11        Zn248   1.976       .  S
O11          C19   1.269   1_556  A
O12        Zn494   2.045       .  S
O12          C21   1.277   1_554  A
O13          C22   1.274       .  A
O14          C21   1.267       .  A
O15         C267   1.272   1_545  A
O16          C23   1.278   1_554  A
O17          C23   1.267       .  A
C18         C204   1.492       .  S
C19         C176   1.487       .  S
C20         O500   1.272   1_455  A
C20         C232   1.496       .  S
C21         C190   1.477       .  S
C22         O260   1.272       .  A
C22         C221   1.506       .  S
C23         C165   1.477       .  S
N24          C29   1.350       .  A
N24          C28   1.350       .  A
N24          H56   1.040   1_554  S
N25          C32   1.349       .  A
N25          C33   1.348       .  A
N26          C31   1.351       .  A
N26          C30   1.351       .  A
N26          H57   1.037       .  S
N27          C34   1.350       .  A
N27          C35   1.350       .  A
C28          C36   1.388       .  A
C28          C44   1.410       .  A
C29          C45   1.408       .  A
C29          C37   1.386       .  A
C30          C38   1.387       .  A
C30          C47   1.412       .  A
C31          C46   1.413       .  A
C31          C39   1.389       .  A
C32          C44   1.410       .  A
C32          C40   1.385   1_554  A
C33          C47   1.412       .  A
C33          C41   1.387   1_554  A
C34          C42   1.385       .  A
C34          C45   1.413       .  A
C35          C43   1.386       .  A
C35          C46   1.415       .  A
C36          C37   1.369       .  A
C36          H48   1.082       .  S
C37          H49   1.082       .  S
C38          C39   1.368       .  A
C38          H50   1.082       .  S
C39          H51   1.081       .  S
C40          C41   1.382       .  A
C40          H52   1.082       .  S
C41          H53   1.082       .  S
C42          C43   1.382       .  A
C42          H54   1.082       .  S
C43          H55   1.082       .  S
C44         C193   1.490   1_554  S
C45         C179   1.494       .  S
C46         C207   1.494       .  S
C47         C162   1.489       .  S
N58          C59   1.362       .  A
N58         C307   1.374       .  A
N58         C627   1.461   1_565  S
C59         C235   1.480       .  S
C59         C305   1.378       .  A
C60          C61   1.360       .  A
C60         C304   1.378       .  A
C60          H63   1.083       .  S
C61          C62   1.382       .  A
C61          H64   1.083       .  S
C62         C638   1.497       .  S
C62         N303   1.375       .  A
N65         C314   1.374       .  A
N65         C801   1.367       .  A
N65         C109   1.458       .  S
C66         C953   1.493       .  S
C66         N800   1.367       .  A
C66          C67   1.381       .  A
C67         C558   1.362       .  A
C67          H70   1.083       .  S
C68          C69   1.379       .  A
C68         C557   1.362       .  A
C68          H71   1.083       .  S
C69         C120   1.501       .  S
C69         N310   1.375       .  A
N72          C77   1.357       .  A
N72          C76   1.353       .  A
N72         H104   1.030       .  S
N73          C80   1.355       .  A
N73          C81   1.358       .  A
N74          C79   1.354       .  A
N74          C78   1.357       .  A
N74         H105   1.034       .  S
N75          C82   1.360       .  A
N75          C83   1.357       .  A
C76          C84   1.389       .  A
C76          C92   1.422       .  A
C77          C93   1.424       .  A
C77          C85   1.388       .  A
C78          C86   1.387       .  A
C78          C95   1.419       .  A
C79          C94   1.420       .  A
C79          C87   1.388       .  A
C80          C92   1.429       .  A
C80          C88   1.388       .  A
C81          C95   1.425       .  A
C81          C89   1.385       .  A
C82          C90   1.385       .  A
C82          C93   1.431       .  A
C83          C91   1.387       .  A
C83          C94   1.431       .  A
C84          C85   1.371       .  A
C84          H96   1.082       .  S
C85          H97   1.082       .  S
C86          C87   1.369       .  A
C86          H98   1.082       .  S
C87          H99   1.082       .  S
C88          C89   1.381       .  A
C88         H100   1.082       .  S
C89         H101   1.082       .  S
C90          C91   1.383       .  A
C90         H102   1.082       .  S
C91         H103   1.082       .  S
C92         C151   1.502       .  S
C93         C106   1.518       .  S
C94         C123   1.509       .  S
C95         C134   1.514       .  S
C106        C107   1.414       .  A
C106        C601   1.417       .  A
C107        C108   1.416       .  A
C107        C112   1.449       .  S
C108        C109   1.415       .  A
C108        C115   1.448       .  S
C109        C600   1.412       .  A
C110        C111   1.423       .  A
C110        C599   1.412   1_455  A
C110        C113   1.446       .  S
C111        C596   1.417   1_455  A
C111        C114   1.448       .  S
C112        N119   1.157       .  T
C113        N118   1.157       .  T
C114        N116   1.157       .  T
C115        N117   1.157       .  T
C120        C121   1.418       .  A
C120        C615   1.419       .  A
C121        C122   1.414       .  A
C121        C126   1.448       .  S
C122        C123   1.411       .  A
C122        C129   1.451       .  S
C123        C614   1.411       .  A
C124        C125   1.420       .  A
C124        C613   1.411   1_455  A
C124        C127   1.450       .  S
C125        C610   1.419   1_455  A
C125        C128   1.446       .  S
C126        N133   1.157       .  T
C127        N132   1.157       .  T
C128        N130   1.156       .  T
C129        N131   1.157       .  T
C134        C135   1.412       .  A
C134        C139   1.413       .  A
C135        C136   1.417       .  A
C135        C140   1.450       .  S
C136        C137   1.417       .  A
C136        C143   1.447       .  S
C137        C138   1.418       .  A
C137        N548   1.461   1_545  S
C138        C139   1.421       .  A
C138        C631   1.445       .  S
C139        C142   1.450       .  S
C140        N147   1.157       .  T
C141        C628   1.445       .  S
C141        N146   1.157       .  T
C142        N634   1.157       .  T
C143        N390   1.157       .  T
N144        C632   1.157       .  T
N145        C388   1.157       .  T
C148        C552   1.497       .  S
C148        C153   1.422       .  A
C148        C639   1.419       .  A
C149        C150   1.416       .  A
C149        C638   1.419   1_455  A
C149        C154   1.446       .  S
C150        C641   1.409   1_455  A
C150        C157   1.451       .  S
C151        C152   1.408       .  A
C151        C640   1.409       .  A
C152        C153   1.413       .  A
C152        C155   1.452       .  S
C153        C156   1.450       .  S
C154        N161   1.156       .  T
C155        N160   1.157       .  T
C156        N158   1.157       .  T
C157        N159   1.157       .  T
C162        C163   1.412   1_554  A
C162        C167   1.408       .  A
C163        C164   1.410       .  A
C163        C168   1.451       .  S
C164        C165   1.412       .  A
C164        C171   1.450       .  S
C165        C166   1.416   1_556  A
C166        C167   1.408       .  A
C166        C169   1.453       .  S
C167        C170   1.451       .  S
C168        N175   1.157       .  T
C169        N174   1.158       .  T
C170        N172   1.157       .  T
C171        N173   1.157       .  T
C176        C177   1.414   1_554  A
C176        C181   1.417       .  A
C177        C178   1.411       .  A
C177        C182   1.451       .  S
C178        C179   1.413   1_556  A
C178        C185   1.452       .  S
C179        C180   1.408       .  A
C180        C181   1.412       .  A
C180        C183   1.450       .  S
C181        C184   1.450       .  S
C182        N189   1.157       .  T
C183        N188   1.157       .  T
C184        N186   1.157       .  T
C185        N187   1.157       .  T
C190        C191   1.407       .  A
C190        C195   1.415   1_556  A
C191        C192   1.409       .  A
C191        C196   1.450       .  S
C192        C193   1.414       .  A
C192        C199   1.450       .  S
C193        C194   1.409   1_556  A
C194        C195   1.411       .  A
C194        C197   1.451       .  S
C195        C198   1.450       .  S
C196        N203   1.157       .  T
C197        N202   1.157       .  T
C198        N200   1.157       .  T
C199        N201   1.157       .  T
C204        C205   1.417   1_554  A
C204        C209   1.418       .  A
C205        C206   1.409       .  A
C205        C210   1.452       .  S
C206        C207   1.410   1_556  A
C206        C213   1.452       .  S
C207        C208   1.410       .  A
C208        C209   1.415       .  A
C208        C211   1.450       .  S
C209        C212   1.449       .  S
C210        N217   1.157       .  T
C211        N216   1.157       .  T
C212        N214   1.157       .  T
C213        N215   1.157       .  T
C218        C801   1.494       .  S
C218        C223   1.410       .  A
C218        C954   1.414       .  A
C219        C220   1.410       .  A
C219        C953   1.415   1_455  A
C219        C224   1.452       .  S
C220        C956   1.416   1_545  A
C220        C227   1.453       .  S
C221        C222   1.419       .  A
C221        C955   1.418       .  A
C222        C223   1.419       .  A
C222        C225   1.449       .  S
C223        C226   1.448       .  S
C224        N231   1.157       .  T
C225        N230   1.157       .  T
C226        N228   1.157       .  T
C227        N229   1.158       .  T
C232        C237   1.416   1_545  A
C232        C968   1.419   1_455  A
C233        C234   1.413       .  A
C233        C967   1.418       .  A
C233        C238   1.450       .  S
C234        C970   1.407       .  A
C234        C241   1.449       .  S
C235        C236   1.414   1_655  A
C235        C969   1.406   1_565  A
C236        C237   1.408       .  A
C236        C239   1.454       .  S
C237        C240   1.451       .  S
C238        N245   1.157       .  T
C239        N244   1.157       .  T
C240        N242   1.157       .  T
C241        N243   1.157       .  T
Zn246       O255   2.020       .  S
Zn246       O262   1.972       .  S
Zn246       O740   1.943       .  S
Zn247       O742   2.055       .  S
Zn247       O254   2.070       .  S
Zn247       O258   2.041       .  S
Zn247       O495   1.982   1_564  S
Zn248       O253   2.018       .  S
Zn248       O259   1.977       .  S
Zn248       O250   1.949       .  S
Zn249       O747   2.040       .  S
Zn249       O260   2.005       .  S
Zn249       O261   2.041       .  S
Zn249       O740   1.956   1_554  S
O250       Zn736   1.943   1_455  S
O250       Zn492   1.982   1_556  S
O250       Zn739   1.956   1_556  S
O251        C263   1.270   1_556  A
O252       Zn737   2.055       .  S
O252        C264   1.280       .  A
O253        C265   1.272       .  A
O254        C263   1.281       .  A
O255        C755   1.273       .  A
O256        C264   1.270   1_556  A
O257       Zn739   2.040       .  S
O257        C266   1.277   1_554  A
O258        C267   1.273       .  A
O259        C266   1.267       .  A
O261        C268   1.277   1_554  A
O262        C268   1.268       .  A
C263        C449   1.491       .  S
C264        C421   1.484       .  S
C265        O745   1.273   1_455  A
C265        C477   1.497       .  S
C266        C435   1.475       .  S
C267        C466   1.504       .  S
C268        C410   1.478       .  S
N269        C274   1.350       .  A
N269        C273   1.349       .  A
N269        H301   1.040   1_554  S
N270        C277   1.349   1_554  A
N270        C278   1.348       .  A
N271        C276   1.351       .  A
N271        C275   1.352       .  A
N271        H302   1.036       .  S
N272        C279   1.351       .  A
N272        C280   1.350       .  A
C273        C281   1.389       .  A
C273        C289   1.410       .  A
C274        C290   1.407       .  A
C274        C282   1.386       .  A
C275        C283   1.387       .  A
C275        C292   1.413       .  A
C276        C291   1.414       .  A
C276        C284   1.388       .  A
C277        C289   1.410   1_556  A
C277        C285   1.385       .  A
C278        C292   1.413       .  A
C278        C286   1.387   1_554  A
C279        C287   1.385       .  A
C279        C290   1.413       .  A
C280        C288   1.386       .  A
C280        C291   1.415       .  A
C281        C282   1.369       .  A
C281        H293   1.082       .  S
C282        H294   1.082       .  S
C283        C284   1.368       .  A
C283        H295   1.082       .  S
C284        H296   1.081       .  S
C285        C286   1.383       .  A
C285        H297   1.082       .  S
C286        H298   1.082       .  S
C287        C288   1.382       .  A
C287        H299   1.082       .  S
C288        H300   1.082       .  S
C289        C438   1.490   1_554  S
C290        C424   1.494       .  S
C291        C452   1.493       .  S
C292        C407   1.490       .  S
N303        C304   1.363       .  A
N303        C872   1.462       .  S
C304        C480   1.481       .  S
C305        C306   1.360       .  A
C305        H308   1.083       .  S
C306        C307   1.382       .  A
C306        H309   1.083       .  S
C307        C883   1.497       .  S
N310        C556   1.367       .  A
N310        C354   1.459   1_545  S
C311        C708   1.494       .  S
C311        N555   1.367       .  A
C311        C312   1.382       .  A
C312        C803   1.363       .  A
C312        H315   1.083       .  S
C313        C802   1.363       .  A
C313        C314   1.380       .  A
C313        H316   1.083       .  S
C314        C365   1.501       .  S
N317        C322   1.357       .  A
N317        C321   1.352       .  A
N317        H349   1.030       .  S
N318        C325   1.356       .  A
N318        C326   1.359       .  A
N319        C324   1.353       .  A
N319        C323   1.356       .  A
N319        H350   1.033       .  S
N320        C327   1.359       .  A
N320        C328   1.356       .  A
C321        C329   1.389       .  A
C321        C337   1.422       .  A
C322        C338   1.424       .  A
C322        C330   1.388       .  A
C323        C331   1.388       .  A
C323        C340   1.421       .  A
C324        C339   1.421       .  A
C324        C332   1.388       .  A
C325        C337   1.430       .  A
C325        C333   1.388       .  A
C326        C340   1.427       .  A
C326        C334   1.385       .  A
C327        C335   1.385       .  A
C327        C338   1.429       .  A
C328        C336   1.387       .  A
C328        C339   1.429       .  A
C329        C330   1.371       .  A
C329        H341   1.082       .  S
C330        H342   1.082       .  S
C331        C332   1.370       .  A
C331        H343   1.082       .  S
C332        H344   1.082       .  S
C333        C334   1.381       .  A
C333        H345   1.082       .  S
C334        H346   1.082       .  S
C335        C336   1.382       .  A
C335        H347   1.082       .  S
C336        H348   1.082       .  S
C337        C396   1.502       .  S
C338        C351   1.516       .  S
C339        C368   1.506       .  S
C340        C379   1.515       .  S
C351        C352   1.413       .  A
C351        C846   1.416       .  A
C352        C353   1.416       .  A
C352        C357   1.450       .  S
C353        C354   1.416       .  A
C353        C360   1.448       .  S
C354        C845   1.413       .  A
C355        C844   1.413   1_455  A
C355        C356   1.423       .  A
C355        C358   1.446       .  S
C356        C841   1.416   1_455  A
C356        C359   1.448       .  S
C357        N364   1.157       .  T
C358        N363   1.157       .  T
C359        N361   1.157       .  T
C360        N362   1.157       .  T
C365        C366   1.418       .  A
C365        C860   1.419       .  A
C366        C367   1.414       .  A
C366        C371   1.447       .  S
C367        C368   1.410       .  A
C367        C374   1.452       .  S
C368        C859   1.410       .  A
C369        C858   1.410   1_455  A
C369        C370   1.419       .  A
C369        C372   1.451       .  S
C370        C855   1.419   1_455  A
C370        C373   1.446       .  S
C371        N378   1.157       .  T
C372        N377   1.157       .  T
C373        N375   1.156       .  T
C374        N376   1.157       .  T
C379        C380   1.412       .  A
C379        C384   1.413       .  A
C380        C381   1.418       .  A
C380        C385   1.450       .  S
C381        C382   1.417       .  A
C381        C388   1.447       .  S
C382        C383   1.418       .  A
C382        N793   1.462       .  S
C383        C384   1.421       .  A
C383        C876   1.445       .  S
C384        C387   1.450       .  S
C385        N392   1.157       .  T
C386        C873   1.445       .  S
C386        N391   1.157       .  T
C387        N879   1.157       .  T
N389        C877   1.157       .  T
C393        C797   1.497       .  S
C393        C884   1.418       .  A
C393        C398   1.421       .  A
C394        C883   1.418   1_455  A
C394        C395   1.416       .  A
C394        C399   1.446       .  S
C395        C886   1.410   1_455  A
C395        C402   1.451       .  S
C396        C885   1.410       .  A
C396        C397   1.408       .  A
C397        C398   1.412       .  A
C397        C400   1.451       .  S
C398        C401   1.450       .  S
C399        N406   1.156       .  T
C400        N405   1.157       .  T
C401        N403   1.157       .  T
C402        N404   1.157       .  T
C407        C408   1.413   1_554  A
C407        C412   1.409       .  A
C408        C409   1.411       .  A
C408        C413   1.451       .  S
C409        C410   1.411       .  A
C409        C416   1.450       .  S
C410        C411   1.415   1_556  A
C411        C412   1.409       .  A
C411        C414   1.453       .  S
C412        C415   1.451       .  S
C413        N420   1.157       .  T
C414        N419   1.158       .  T
C415        N417   1.157       .  T
C416        N418   1.157       .  T
C421        C422   1.412   1_554  A
C421        C426   1.417       .  A
C422        C423   1.410       .  A
C422        C427   1.451       .  S
C423        C424   1.414   1_556  A
C423        C430   1.451       .  S
C424        C425   1.409       .  A
C425        C426   1.412       .  A
C425        C428   1.450       .  S
C426        C429   1.450       .  S
C427        N434   1.157       .  T
C428        N433   1.157       .  T
C429        N431   1.157       .  T
C430        N432   1.157       .  T
C435        C436   1.406       .  A
C435        C440   1.414   1_556  A
C436        C437   1.409       .  A
C436        C441   1.450       .  S
C437        C438   1.415       .  A
C437        C444   1.450       .  S
C438        C439   1.410   1_556  A
C439        C440   1.410       .  A
C439        C442   1.450       .  S
C440        C443   1.450       .  S
C441        N448   1.157       .  T
C442        N447   1.157       .  T
C443        N445   1.157       .  T
C444        N446   1.157       .  T
C449        C450   1.416   1_554  A
C449        C454   1.418       .  A
C450        C451   1.409       .  A
C450        C455   1.451       .  S
C451        C452   1.411   1_556  A
C451        C458   1.452       .  S
C452        C453   1.410       .  A
C453        C454   1.415       .  A
C453        C456   1.450       .  S
C454        C457   1.450       .  S
C455        N462   1.157       .  T
C456        N461   1.157       .  T
C457        N459   1.157       .  T
C458        N460   1.157       .  T
C463        C556   1.493       .  S
C463        C709   1.415       .  A
C463        C468   1.411   1_545  A
C464        C708   1.414   1_455  A
C464        C465   1.410       .  A
C464        C469   1.452       .  S
C465        C711   1.418       .  A
C465        C472   1.453       .  S
C466        C710   1.416   1_565  A
C466        C467   1.418       .  A
C467        C468   1.418       .  A
C467        C470   1.449       .  S
C468        C471   1.447       .  S
C469        N476   1.157       .  T
C470        N475   1.157       .  T
C471        N473   1.157       .  T
C472        N474   1.158       .  T
C477        C723   1.418   1_455  A
C477        C482   1.416       .  A
C478        C722   1.419       .  A
C478        C479   1.412       .  A
C478        C483   1.450       .  S
C479        C725   1.406   1_545  A
C479        C486   1.449       .  S
C480        C724   1.407       .  A
C480        C481   1.414   1_655  A
C481        C482   1.408       .  A
C481        C484   1.453       .  S
C482        C485   1.451       .  S
C483        N490   1.157       .  T
C484        N489   1.157       .  T
C485        N487   1.157       .  T
C486        N488   1.157       .  T
Zn491       O741   1.983   1_545  S
Zn491       O500   2.013       .  S
Zn491       O507   1.970       .  S
Zn492       O499   2.071   1_455  S
Zn492       O503   2.047       .  S
Zn493       O498   2.022       .  S
Zn493       O746   1.974   1_545  S
Zn493       O504   1.979       .  S
Zn493       O495   1.947       .  S
Zn494       O505   2.006       .  S
Zn494       O506   2.043   1_455  S
O496       Zn736   1.982       .  S
O496        C508   1.270   1_556  A
O497        C509   1.281       .  A
O498        C510   1.272       .  A
O499        C508   1.281       .  A
O501       Zn738   1.976       .  S
O501        C509   1.269   1_556  A
O502        C511   1.277   1_554  A
O503        C512   1.274       .  A
O504        C511   1.267       .  A
O505        C757   1.272   1_545  A
O506        C513   1.278   1_554  A
O507        C513   1.267       .  A
C508        C694   1.492       .  S
C509        C666   1.487       .  S
C510        C722   1.496       .  S
C511        C680   1.477       .  S
C512        O750   1.272       .  A
C512        C711   1.506       .  S
C513        C655   1.477       .  S
N514        C519   1.350       .  A
N514        C518   1.350       .  A
N514        H546   1.040   1_554  S
N515        C522   1.349       .  A
N515        C523   1.348       .  A
N516        C521   1.351       .  A
N516        C520   1.351       .  A
N516        H547   1.037       .  S
N517        C524   1.350       .  A
N517        C525   1.350       .  A
C518        C526   1.388       .  A
C518        C534   1.410       .  A
C519        C535   1.408       .  A
C519        C527   1.386       .  A
C520        C528   1.387       .  A
C520        C537   1.412       .  A
C521        C536   1.413       .  A
C521        C529   1.389       .  A
C522        C534   1.410       .  A
C522        C530   1.385   1_554  A
C523        C537   1.412       .  A
C523        C531   1.387   1_554  A
C524        C532   1.385       .  A
C524        C535   1.413       .  A
C525        C533   1.386       .  A
C525        C536   1.415       .  A
C526        C527   1.369       .  A
C526        H538   1.082       .  S
C527        H539   1.082       .  S
C528        C529   1.368       .  A
C528        H540   1.082       .  S
C529        H541   1.081       .  S
C530        C531   1.382       .  A
C530        H542   1.082       .  S
C531        H543   1.082       .  S
C532        C533   1.382       .  A
C532        H544   1.082       .  S
C533        H545   1.082       .  S
C534        C683   1.490   1_554  S
C535        C669   1.494       .  S
C536        C697   1.494       .  S
C537        C652   1.489       .  S
N548        C797   1.374       .  A
N548        C549   1.362       .  A
C549        C725   1.480       .  S
C549        C795   1.378       .  A
C550        C794   1.378       .  A
C550        C551   1.360       .  A
C550        H553   1.083       .  S
C551        C552   1.382       .  A
C551        H554   1.083       .  S
C552        N793   1.375       .  A
N555        C804   1.374       .  A
N555        C599   1.458       .  S
C556        C557   1.381       .  A
C557        H560   1.083       .  S
C558        C559   1.379       .  A
C558        H561   1.083       .  S
C559        C610   1.501       .  S
C559        N800   1.375       .  A
N562        C567   1.357       .  A
N562        C566   1.353       .  A
N562        H594   1.030       .  S
N563        C570   1.355       .  A
N563        C571   1.358       .  A
N564        C569   1.354       .  A
N564        C568   1.357       .  A
N564        H595   1.034       .  S
N565        C572   1.360       .  A
N565        C573   1.357       .  A
C566        C574   1.389       .  A
C566        C582   1.422       .  A
C567        C583   1.424       .  A
C567        C575   1.388       .  A
C568        C576   1.387       .  A
C568        C585   1.419       .  A
C569        C584   1.420       .  A
C569        C577   1.388       .  A
C570        C582   1.429       .  A
C570        C578   1.388       .  A
C571        C585   1.425       .  A
C571        C579   1.385       .  A
C572        C580   1.385       .  A
C572        C583   1.432       .  A
C573        C581   1.387       .  A
C573        C584   1.431       .  A
C574        C575   1.371       .  A
C574        H586   1.082       .  S
C575        H587   1.082       .  S
C576        C577   1.369       .  A
C576        H588   1.082   1_655  S
C577        H589   1.082   1_655  S
C578        C579   1.381       .  A
C578        H590   1.082       .  S
C579        H591   1.082       .  S
C580        C581   1.383       .  A
C580        H592   1.082       .  S
C581        H593   1.082       .  S
C582        C641   1.502       .  S
C583        C596   1.518       .  S
C584        C613   1.509       .  S
C585        C624   1.514       .  S
C596        C597   1.414       .  A
C597        C598   1.416       .  A
C597        C602   1.449       .  S
C598        C599   1.415       .  A
C598        C605   1.448       .  S
C600        C601   1.423       .  A
C600        C603   1.446       .  S
C601        C604   1.448       .  S
C602        N609   1.157       .  T
C603        N608   1.157       .  T
C604        N606   1.157       .  T
C605        N607   1.157       .  T
C610        C611   1.418       .  A
C611        C612   1.414       .  A
C611        C616   1.448       .  S
C612        C613   1.411       .  A
C612        C619   1.451       .  S
C614        C615   1.420       .  A
C614        C617   1.450       .  S
C615        C618   1.446       .  S
C616        N623   1.157       .  T
C617        N622   1.157       .  T
C618        N620   1.156       .  T
C619        N621   1.157       .  T
C624        C625   1.412       .  A
C624        C629   1.413   1_655  A
C625        C626   1.417       .  A
C625        C630   1.450       .  S
C626        C627   1.417       .  A
C626        C633   1.447       .  S
C627        C628   1.418   1_655  A
C628        C629   1.421       .  A
C629        C632   1.450       .  S
C630        N637   1.157       .  T
C631        N636   1.157       .  T
C633        N880   1.157       .  T
N635        C878   1.157       .  T
C638        C643   1.422       .  A
C639        C640   1.416       .  A
C639        C644   1.446       .  S
C640        C647   1.451       .  S
C641        C642   1.408       .  A
C642        C643   1.413       .  A
C642        C645   1.452       .  S
C643        C646   1.450       .  S
C644        N651   1.156       .  T
C645        N650   1.157       .  T
C646        N648   1.157       .  T
C647        N649   1.157       .  T
C652        C653   1.412   1_554  A
C652        C657   1.408       .  A
C653        C654   1.410       .  A
C653        C658   1.451       .  S
C654        C655   1.412       .  A
C654        C661   1.450       .  S
C655        C656   1.416   1_556  A
C656        C657   1.408       .  A
C656        C659   1.453       .  S
C657        C660   1.451       .  S
C658        N665   1.157       .  T
C659        N664   1.158       .  T
C660        N662   1.157       .  T
C661        N663   1.157       .  T
C666        C667   1.414   1_554  A
C666        C671   1.417       .  A
C667        C668   1.411       .  A
C667        C672   1.451       .  S
C668        C669   1.413   1_556  A
C668        C675   1.452       .  S
C669        C670   1.408       .  A
C670        C671   1.412       .  A
C670        C673   1.450       .  S
C671        C674   1.450       .  S
C672        N679   1.157       .  T
C673        N678   1.157       .  T
C674        N676   1.157       .  T
C675        N677   1.157       .  T
C680        C681   1.407       .  A
C680        C685   1.415   1_556  A
C681        C682   1.409       .  A
C681        C686   1.450       .  S
C682        C683   1.414       .  A
C682        C689   1.450       .  S
C683        C684   1.409   1_556  A
C684        C685   1.411       .  A
C684        C687   1.451       .  S
C685        C688   1.450       .  S
C686        N693   1.157       .  T
C687        N692   1.157       .  T
C688        N690   1.157       .  T
C689        N691   1.157       .  T
C694        C695   1.417   1_554  A
C694        C699   1.418       .  A
C695        C696   1.409       .  A
C695        C700   1.452       .  S
C696        C697   1.410   1_556  A
C696        C703   1.452       .  S
C697        C698   1.410       .  A
C698        C699   1.415       .  A
C698        C701   1.450       .  S
C699        C702   1.449       .  S
C700        N707   1.157       .  T
C701        N706   1.157       .  T
C702        N704   1.157       .  T
C703        N705   1.157       .  T
C708        C713   1.410       .  A
C709        C710   1.410       .  A
C709        C714   1.452       .  S
C710        C717   1.453       .  S
C711        C712   1.419   1_455  A
C712        C713   1.419       .  A
C712        C715   1.449       .  S
C713        C716   1.448       .  S
C714        N721   1.157       .  T
C715        N720   1.157       .  T
C716        N718   1.157       .  T
C717        N719   1.158       .  T
C722        C727   1.416   1_545  A
C723        C724   1.413       .  A
C723        C728   1.450       .  S
C724        C731   1.449       .  S
C725        C726   1.414       .  A
C726        C727   1.408       .  A
C726        C729   1.453       .  S
C727        C730   1.451       .  S
C728        N735   1.157       .  T
C729        N734   1.157       .  T
C730        N732   1.157       .  T
C731        N733   1.157       .  T
Zn736       O745   2.020       .  S
Zn736       O752   1.972       .  S
Zn737       O744   2.070   1_455  S
Zn737       O748   2.041       .  S
Zn738       O743   2.018       .  S
Zn738       O749   1.977       .  S
Zn738       O740   1.949       .  S
Zn739       O750   2.005       .  S
Zn739       O751   2.041   1_455  S
O741        C753   1.270   1_556  A
O742        C754   1.280       .  A
O743        C755   1.272       .  A
O744        C753   1.281       .  A
O746        C754   1.270   1_556  A
O747        C756   1.277   1_554  A
O748        C757   1.273       .  A
O749        C756   1.267       .  A
O751        C758   1.277   1_554  A
O752        C758   1.268       .  A
C753        C939   1.491       .  S
C754        C911   1.484       .  S
C755        C967   1.497       .  S
C756        C925   1.475       .  S
C757        C956   1.504       .  S
C758        C900   1.478       .  S
N759        C764   1.350       .  A
N759        C763   1.349       .  A
N759        H791   1.040   1_554  S
N760        C767   1.349   1_554  A
N760        C768   1.348       .  A
N761        C766   1.351       .  A
N761        C765   1.352       .  A
N761        H792   1.036       .  S
N762        C769   1.351       .  A
N762        C770   1.350       .  A
C763        C771   1.389       .  A
C763        C779   1.410       .  A
C764        C780   1.407       .  A
C764        C772   1.386       .  A
C765        C773   1.387       .  A
C765        C782   1.413       .  A
C766        C781   1.414       .  A
C766        C774   1.388       .  A
C767        C779   1.410   1_556  A
C767        C775   1.385       .  A
C768        C782   1.413       .  A
C768        C776   1.387   1_554  A
C769        C777   1.385       .  A
C769        C780   1.413       .  A
C770        C778   1.386       .  A
C770        C781   1.415       .  A
C771        C772   1.369       .  A
C771        H783   1.082       .  S
C772        H784   1.082       .  S
C773        C774   1.368       .  A
C773        H785   1.082       .  S
C774        H786   1.081       .  S
C775        C776   1.383       .  A
C775        H787   1.082       .  S
C776        H788   1.082       .  S
C777        C778   1.382       .  A
C777        H789   1.082       .  S
C778        H790   1.082       .  S
C779        C928   1.490   1_554  S
C780        C914   1.494       .  S
C781        C942   1.493       .  S
C782        C897   1.490       .  S
N793        C794   1.363       .  A
C794        C970   1.481       .  S
C795        C796   1.360       .  A
C795        H798   1.083       .  S
C796        C797   1.382       .  A
C796        H799   1.083       .  S
N800        C844   1.459   1_545  S
C801        C802   1.382       .  A
C802        H805   1.083       .  S
C803        C804   1.380       .  A
C803        H806   1.083       .  S
C804        C855   1.501       .  S
N807        C812   1.357       .  A
N807        C811   1.352       .  A
N807        H839   1.030       .  S
N808        C815   1.356       .  A
N808        C816   1.359       .  A
N809        C814   1.353       .  A
N809        C813   1.356       .  A
N809        H840   1.033       .  S
N810        C817   1.359       .  A
N810        C818   1.356       .  A
C811        C819   1.389       .  A
C811        C827   1.422       .  A
C812        C828   1.424       .  A
C812        C820   1.388       .  A
C813        C821   1.388       .  A
C813        C830   1.421       .  A
C814        C829   1.421       .  A
C814        C822   1.388       .  A
C815        C827   1.430       .  A
C815        C823   1.389       .  A
C816        C830   1.427       .  A
C816        C824   1.385       .  A
C817        C825   1.385       .  A
C817        C828   1.429       .  A
C818        C826   1.387       .  A
C818        C829   1.429       .  A
C819        C820   1.371       .  A
C819        H831   1.082       .  S
C820        H832   1.082       .  S
C821        C822   1.370       .  A
C821        H833   1.082       .  S
C822        H834   1.082   1_655  S
C823        C824   1.381       .  A
C823        H835   1.082       .  S
C824        H836   1.082       .  S
C825        C826   1.382       .  A
C825        H837   1.082       .  S
C826        H838   1.082       .  S
C827        C886   1.502       .  S
C828        C841   1.516       .  S
C829        C858   1.506       .  S
C830        C869   1.515       .  S
C841        C842   1.413       .  A
C842        C843   1.416       .  A
C842        C847   1.450       .  S
C843        C844   1.416       .  A
C843        C850   1.448       .  S
C845        C846   1.423       .  A
C845        C848   1.446       .  S
C846        C849   1.448       .  S
C847        N854   1.157       .  T
C848        N853   1.157       .  T
C849        N851   1.157       .  T
C850        N852   1.157       .  T
C855        C856   1.418       .  A
C856        C857   1.414       .  A
C856        C861   1.447       .  S
C857        C858   1.410       .  A
C857        C864   1.452       .  S
C859        C860   1.419       .  A
C859        C862   1.451       .  S
C860        C863   1.446       .  S
C861        N868   1.157       .  T
C862        N867   1.157       .  T
C863        N865   1.156       .  T
C864        N866   1.157       .  T
C869        C870   1.412       .  A
C869        C874   1.413   1_655  A
C870        C871   1.418       .  A
C870        C875   1.450       .  S
C871        C872   1.417       .  A
C871        C878   1.447       .  S
C872        C873   1.418   1_655  A
C873        C874   1.421       .  A
C874        C877   1.450       .  S
C875        N882   1.157       .  T
C876        N881   1.157       .  T
C883        C888   1.421       .  A
C884        C885   1.416       .  A
C884        C889   1.446       .  S
C885        C892   1.451       .  S
C886        C887   1.408       .  A
C887        C888   1.412       .  A
C887        C890   1.451       .  S
C888        C891   1.450       .  S
C889        N896   1.156       .  T
C890        N895   1.157       .  T
C891        N893   1.157       .  T
C892        N894   1.157       .  T
C897        C898   1.413   1_554  A
C897        C902   1.409       .  A
C898        C899   1.411       .  A
C898        C903   1.451       .  S
C899        C900   1.411       .  A
C899        C906   1.450       .  S
C900        C901   1.415   1_556  A
C901        C902   1.409       .  A
C901        C904   1.453       .  S
C902        C905   1.451       .  S
C903        N910   1.157       .  T
C904        N909   1.158       .  T
C905        N907   1.157       .  T
C906        N908   1.157       .  T
C911        C912   1.412   1_554  A
C911        C916   1.417       .  A
C912        C913   1.410       .  A
C912        C917   1.451       .  S
C913        C914   1.414   1_556  A
C913        C920   1.451       .  S
C914        C915   1.409       .  A
C915        C916   1.412       .  A
C915        C918   1.450       .  S
C916        C919   1.450       .  S
C917        N924   1.157       .  T
C918        N923   1.157       .  T
C919        N921   1.157       .  T
C920        N922   1.157       .  T
C925        C926   1.406       .  A
C925        C930   1.414   1_556  A
C926        C927   1.409       .  A
C926        C931   1.450       .  S
C927        C928   1.415       .  A
C927        C934   1.450       .  S
C928        C929   1.410   1_556  A
C929        C930   1.410       .  A
C929        C932   1.450       .  S
C930        C933   1.450       .  S
C931        N938   1.157       .  T
C932        N937   1.157       .  T
C933        N935   1.157       .  T
C934        N936   1.157       .  T
C939        C940   1.416   1_554  A
C939        C944   1.418       .  A
C940        C941   1.409       .  A
C940        C945   1.451       .  S
C941        C942   1.411   1_556  A
C941        C948   1.452       .  S
C942        C943   1.410       .  A
C943        C944   1.415       .  A
C943        C946   1.450       .  S
C944        C947   1.450       .  S
C945        N952   1.157       .  T
C946        N951   1.157       .  T
C947        N949   1.157       .  T
C948        N950   1.157       .  T
C953        C958   1.411   1_545  A
C954        C955   1.410       .  A
C954        C959   1.452       .  S
C955        C962   1.453       .  S
C956        C957   1.418   1_455  A
C957        C958   1.418       .  A
C957        C960   1.449       .  S
C958        C961   1.447       .  S
C959        N966   1.157       .  T
C960        N965   1.157       .  T
C961        N963   1.157       .  T
C962        N964   1.158       .  T
C967        C972   1.416       .  A
C968        C969   1.412       .  A
C968        C973   1.450       .  S
C969        C976   1.449       .  S
C970        C971   1.414       .  A
C971        C972   1.408       .  A
C971        C974   1.453       .  S
C972        C975   1.451       .  S
C973        N980   1.157       .  T
C974        N979   1.157       .  T
C975        N977   1.157       .  T
C976        N978   1.157       .  T
