geometry optimzed in LAMMPS
_audit_creation_date              2020-12-01 
_audit_creation_method            'lammps2cif' 
_symmetry_space_group_name_H-M    'P1' 
_symmetry_Int_Tables_number       1 
_symmetry_cell_setting            triclinic 
loop_ 
_symmetry_equiv_pos_as_xyz 
  x,y,z 
_cell_length_a                    47.46521827 
_cell_length_b                    55.38302273217583 
_cell_length_c                    31.657797814864697 
_cell_angle_alpha                 89.41931247476565 
_cell_angle_beta                  89.71450002399365 
_cell_angle_gamma                 124.69335217005633 
loop_ 
_atom_site_label 
_atom_site_type_symbol 
_atom_site_fract_x 
_atom_site_fract_y 
_atom_site_fract_z 
_atom_site_charge 
N1          N  0.08597980  0.14894745  0.74862468    -0.03500
C2          C  0.09378600  0.17650831  0.74307331    -0.00900
C3          C  0.09530930  0.18869359  0.78156662    -0.23800
C4          C  0.08892420  0.16835120  0.81199605    -0.24000
C5          C  0.08349238  0.14432554  0.79110600    -0.01000
H6          H  0.10210768  0.21066368  0.78694003     0.12800
H7          H  0.08941875  0.17114133  0.84583234     0.12800
N8          N  0.07092402  0.36645332  0.74305262    -0.03500
C9          C  0.06387572  0.36252130  0.78512820    -0.00900
C10         C  0.06411570  0.33908832  0.80011498    -0.23800
C11         C  0.07282112  0.32899961  0.76651455    -0.24000
C12         C  0.07715653  0.34628717  0.73195876    -0.01000
H13         H  0.06078878  0.33156445  0.83260581     0.12800
H14         H  0.07826394  0.31250176  0.76788751     0.12800
C15         C  0.15296759  0.27900650  0.64110274     0.80200
N16         N  0.18779462  0.29706771  0.64442425    -0.78100
C17         C  0.20517019  0.32667839  0.63837928     0.82600
N18         N  0.18697083  0.33793268  0.62820183    -0.78100
C19         C  0.15217916  0.32088558  0.62808360     0.82700
N20         N  0.13571198  0.29136225  0.63261867    -0.79800
N21         N  0.35137394  0.40617631  0.75305944    -0.03500
C22         C  0.31736934  0.39365625  0.74783772    -0.00900
C23         C  0.30142206  0.39022428  0.78622109    -0.23800
C24         C  0.32636828  0.40123673  0.81623040    -0.24000
C25         C  0.35675425  0.41119142  0.79516157    -0.01000
H26         H  0.27441743  0.38038162  0.79176365     0.12800
H27         H  0.32276745  0.40174634  0.84991414     0.12800
Zr28       Zr  0.05886625  0.49396774  0.10137900     2.17500
O29         O  0.02711385  0.48065848  0.16812202    -0.51400
O30         O  0.11403438  0.01797100  0.13813504    -0.74600
O31         O  0.04853248  0.44933472  0.13503118    -0.81400
O32         O  0.05624400  0.06032263  0.08867702    -0.83100
O33         O  0.03664355  0.41600758  0.08436343    -0.78700
O34         O  0.05219559  0.02934562  0.13987759    -0.90400
O35         O  0.15448268  0.03037596  0.08757235    -0.76300
O36         O  0.08901116  0.48014931  0.05882679    -0.85800
O37         O  0.09828739  0.03562799  0.06214798    -0.85500
O38         O  0.01576678  0.45331874  0.06009347    -0.72300
O39         O  0.02481283  0.00445405  0.06255016    -0.84400
Zr40       Zr  0.05306794  0.49311681  0.93346117     2.26400
Zr41       Zr  0.04668579  0.44042161  0.01637838     2.06300
Zr42       Zr  0.06503687  0.04640898  0.01987738     2.10000
Zr43       Zr  0.12802617  0.02169379  0.01934010     1.78800
O44         O  0.03273188  0.06818141  0.01544789    -0.93200
O45         O  0.15657860  0.99661910  0.01389205    -0.41000
O46         O  0.09593224  0.03372479  0.97662783    -0.77600
O47         O  0.08726073  0.48211637  0.97372640    -0.96300
O48         O  0.01310318  0.45122781  0.97535025    -0.89600
O49         O  0.02268527  0.00637265  0.97843903    -0.92500
C50         C  0.14496132  0.02867552  0.12602311     1.01300
C51         C  0.05247290  0.05172025  0.12740937     1.14200
C52         C  0.03963264  0.42377910  0.12302157     1.05000
O53         O  0.08741653  0.42713966  0.02133207    -0.94600
O54         O  0.04812723  0.42317022  0.94628650    -0.90400
O55         O  0.04737724  0.45253442  0.89615069    -0.83500
C56         C  0.04775947  0.43045773  0.90765259     1.11600
O57         O  0.44854568  0.45541327  0.08127312    -0.96600
Zr58       Zr  0.48385250  0.46569166  0.01837801     1.88900
O59         O  0.99883691  0.47092472  0.89788420    -0.73200
O60         O  0.99752457  0.38991463  0.00794926    -0.52500
O61         O  0.43919092  0.41332056  0.02518885    -0.97200
O62         O  0.45301158  0.48888598  0.01375078    -0.54400
O63         O  0.45776580  0.45159731  0.94915246    -0.73800
C64         C  0.46812239  0.45667346  0.91049426     0.98600
O65         O  0.09341896  0.01058789  0.87673158    -0.62600
O66         O  0.11845803  0.09481349  0.02672939    -0.57400
O67         O  0.05878251  0.03381886  0.89952876    -0.94100
O68         O  0.07140671  0.06782264  0.94948011    -0.92500
O69         O  0.17336236  0.07399794  0.02079179    -0.92800
O70         O  0.16752766  0.04018776  0.95910413    -0.91600
C71         C  0.06704856  0.05913820  0.91100711     1.17400
H72         H  0.11385944  0.05219251  0.07950321     0.33400
H73         H  0.09948409  0.47735256  0.95498272     0.44200
H74         H  0.01070008  0.01214641  0.96112568     0.37700
H75         H  0.99971435  0.43701112  0.07846485     0.34200
H76         H  0.18117069  0.01221652  0.01784957     0.26000
H77         H  0.00453602  0.37765434  0.02041866     0.32000
H78         H  0.41804745  0.41110745  0.01548957     0.37900
H79         H  0.19365557  0.07514675  0.03151745     0.32300
H80         H  0.11523892  0.10808463  0.00954986     0.31200
H81         H  0.04972841  0.08930382  0.02097258     0.32900
H82         H  0.44940155  0.49007872  0.98324466     0.31800
H83         H  0.15594992  0.02455547  0.93780841     0.35800
H84         H  0.11024348  0.03180222  0.88179589     0.28600
H85         H  0.04127497  0.47907453  0.18932858     0.32800
H86         H  0.42485131  0.44609929  0.07114843     0.35700
H87         H  0.11840547  0.10050455  0.05626479     0.28300
H88         H  0.10667749  0.00204198  0.88141500     0.41100
H89         H  0.10394388  0.43814335  0.99785123     0.31200
H90         H  0.15228039  0.48637737  0.03677338     0.38800
H91         H  0.46997255  0.50950700  0.02191045     0.30700
H92         H  0.47909652  0.38820207  0.02915477     0.30700
H93         H  0.50523928  0.45917909  0.16466834     0.31000
Zr94       Zr  0.04653381  0.49507036  0.60194997     2.17500
O95         O  0.07374970  0.00404559  0.67278159    -0.51400
O96         O  0.99051298  0.47012610  0.63777992    -0.74600
O97         O  0.06168619  0.04150676  0.63594188    -0.81400
O98         O  0.05028957  0.42832773  0.58716238    -0.83100
O99         O  0.06117337  0.07079621  0.58556429    -0.78700
O100        O  0.05661922  0.46072532  0.63626593    -0.90400
O101        O  0.44844284  0.45467727  0.58815070    -0.76300
O102        O  0.01484985  0.00723089  0.56214116    -0.85800
O103        O  0.00814937  0.45233697  0.56183076    -0.85500
O104        O  0.08904278  0.03771229  0.55992439    -0.72300
O105        O  0.08192065  0.48637116  0.55925171    -0.84400
Zr106      Zr  0.05011281  0.49595925  0.43353260     2.26400
Zr107      Zr  0.05525461  0.04825351  0.51772555     2.06300
Zr108      Zr  0.04318055  0.44391203  0.51845732     2.10000
Zr109      Zr  0.47553128  0.46361919  0.51984992     1.78800
O110        O  0.08139660  0.42782303  0.51549819    -0.93200
O111        O  0.44192246  0.48407430  0.51270515    -0.41000
O112        O  0.00941897  0.45419042  0.47634920    -0.77600
O113        O  0.01621578  0.00603380  0.47688355    -0.96300
O114        O  0.09000923  0.03980618  0.47465628    -0.89600
O115        O  0.08325202  0.48462855  0.47438539    -0.92500
C116        C  0.45819636  0.45730591  0.62639402     1.01300
C117        C  0.05565761  0.43798858  0.62503063     1.14200
C118        C  0.06426747  0.06497148  0.62392972     1.05000
O119        O  0.01340696  0.06043576  0.51801973    -0.94600
O120        O  0.05562411  0.06680816  0.44718279    -0.90400
O121        O  0.05673328  0.03766517  0.39793063    -0.83500
C122        C  0.05681788  0.05991563  0.40878645     1.11600
O123        O  0.16249904  0.04936167  0.57432131    -0.96600
Zr124      Zr  0.12299704  0.02859661  0.51536778     1.88900
O125        O  0.10467743  0.01948044  0.39556422    -0.73200
O126        O  0.10449631  0.09923668  0.51281758    -0.52500
O127        O  0.16559774  0.08140977  0.50907386    -0.97200
O128        O  0.15576463  0.00711250  0.51864758    -0.54400
O129        O  0.14724723  0.03963753  0.44395042    -0.73800
C130        C  0.13630063  0.03420539  0.40579056     0.98600
O131        O  0.00984761  0.47963270  0.37540530    -0.62600
O132        O  0.99221714  0.39381049  0.52428385    -0.57400
O133        O  0.04321645  0.45450366  0.39785992    -0.94100
O134        O  0.04053047  0.42395059  0.44887734    -0.92500
O135        O  0.43473132  0.41054518  0.52612842    -0.92800
O136        O  0.43571039  0.44290732  0.46130925    -0.91600
C137        C  0.04063601  0.43117171  0.41007104     1.17400
H138        H  0.99350783  0.43554342  0.58004148     0.33400
H139        H  0.00318638  0.01024376  0.45870215     0.44200
H140        H  0.09578779  0.47962436  0.45668724     0.37700
H141        H  0.10469044  0.05428682  0.57718382     0.34200
H142        H  0.41823532  0.46770128  0.52056526     0.26000
H143        H  0.09555274  0.11084317  0.52140930     0.32000
H144        H  0.15654988  0.08819447  0.48734436     0.37900
H145        H  0.41328877  0.40754468  0.53680849     0.32300
H146        H  0.97750366  0.39213766  0.50083982     0.31200
H147        H  0.06628178  0.40622250  0.51948684     0.32900
H148        H  0.15030811  0.99576997  0.49240464     0.31800
H149        H  0.44921478  0.45517016  0.43645963     0.35800
H150        H  0.49402013  0.45976961  0.37886094     0.28600
H151        H  0.06207125  0.00985704  0.69187631     0.32800
H152        H  0.18524963  0.05623813  0.56231059     0.35700
H153        H  0.50231540  0.38142218  0.52109184     0.28300
H154        H  0.49718875  0.48934753  0.38136318     0.41100
H155        H  0.00037939  0.05186017  0.54481843     0.31200
H156        H  0.44939297  0.49802068  0.53623369     0.38800
H157        H  0.13899415  0.48670503  0.53207181     0.30700
H158        H  0.11957759  0.10150845  0.53618800     0.30700
H159        H  0.09748008  0.02168656  0.66917624     0.31000
N160        N  0.25341203  0.08450590  0.24644751    -0.03500
C161        C  0.28725166  0.09711365  0.23883673    -0.00900
C162        C  0.30476736  0.10363044  0.27631156    -0.23800
C163        C  0.28099567  0.09469162  0.30822533    -0.24000
C164        C  0.24974761  0.08319902  0.28916717    -0.01000
H165        H  0.33210127  0.11459606  0.27995093     0.12800
H166        H  0.28600135  0.09681696  0.34176880     0.12800
N167        N  0.04330514  0.12856591  0.24038627    -0.03500
C168        C  0.05396295  0.13335946  0.28109824    -0.00900
C169        C  0.06021281  0.15952221  0.29497408    -0.23800
C170        C  0.05192602  0.17081111  0.26250649    -0.24000
C171        C  0.04106408  0.15131763  0.22963646    -0.01000
H172        H  0.06755234  0.16831711  0.32644714     0.12800
H173        H  0.05099444  0.18986232  0.26401175     0.12800
C174        C  0.44627863  0.21259748  0.13832396     0.80200
N175        N  0.41233208  0.19135079  0.13329239    -0.78100
C176        C  0.40012109  0.16233063  0.13218798     0.82600
N177        N  0.42304314  0.15509137  0.13423560    -0.78100
C178        C  0.45723512  0.17577752  0.13768935     0.82700
N179        N  0.46843166  0.20442323  0.13938387    -0.79800
N180        N  0.00943453  0.33730844  0.25117751    -0.03500
C181        C  0.99493116  0.30819855  0.24573712    -0.00900
C182        C  0.98859228  0.29389517  0.28419379    -0.23800
C183        C  0.99910463  0.31467711  0.31465802    -0.24000
C184        C  0.01132376  0.34095447  0.29378218    -0.01000
H185        H  0.97677954  0.27065667  0.28943837     0.12800
H186        H  0.99694281  0.31088658  0.34848855     0.12800
C187        C  0.49400205  0.26340340  0.15843875    -0.20300
C188        C  0.45835328  0.24245094  0.15451006    -0.06900
C189        C  0.43603699  0.24930541  0.17209060     0.14000
C190        C  0.44963800  0.27394436  0.19798361    -0.20400
C191        C  0.98453459  0.29202330  0.20563530    -0.06900
C192        C  0.00704083  0.28781700  0.18328594     0.14000
C193        C  0.04514923  0.30782253  0.18979165    -0.23700
H194        H  0.51164160  0.25974504  0.14311916     0.15200
H195        H  0.93238385  0.27759202  0.21457935     0.15300
C196        C  0.39775477  0.23014522  0.16691074    -0.23700
H197        H  0.05925245  0.30143662  0.17004302     0.05500
H198        H  0.05116173  0.30698674  0.22340431     0.08700
H199        H  0.05441623  0.33071210  0.18113406     0.08700
H200        H  0.38685381  0.20901545  0.18410806     0.08700
H201        H  0.39140417  0.22653706  0.13284870     0.08700
H202        H  0.38527245  0.24036126  0.18028051     0.05500
C203        C  0.03581760  0.17819721  0.17077587    -0.20300
C204        C  0.02064966  0.15217851  0.19496997    -0.06900
C205        C  0.48438427  0.13039470  0.19077252     0.14000
C206        C  0.46494117  0.13847189  0.16956377    -0.20400
C207        C  0.48012672  0.16662831  0.15122695    -0.06900
C208        C  0.01597735  0.18559305  0.14881137     0.14000
C209        C  0.03426457  0.21389111  0.12351439    -0.23700
H210        H  0.06337794  0.19395646  0.17166872     0.15200
H211        H  0.43738642  0.12321732  0.17001606     0.15300
C212        C  0.46605980  0.10094410  0.21297379    -0.23700
H213        H  0.06208000  0.22355638  0.12013988     0.05500
H214        H  0.03188961  0.23029967  0.13963376     0.08700
H215        H  0.52576239  0.21290908  0.09512318     0.08700
H216        H  0.97325174  0.10858656  0.25365120     0.08700
H217        H  0.47460000  0.08775117  0.19936311     0.08700
H218        H  0.43784067  0.08831094  0.20921816     0.05500
C219        C  0.34170477  0.14922993  0.15101474    -0.20300
C220        C  0.36308904  0.13964475  0.14324317    -0.06900
C221        C  0.35048428  0.11027379  0.15526212     0.14000
C222        C  0.32277832  0.09508390  0.18387147    -0.20400
C223        C  0.30540208  0.10723896  0.19758497    -0.06900
C224        C  0.31318279  0.13349124  0.17842899     0.14000
C225        C  0.29326361  0.14615475  0.18951920    -0.23700
H226        H  0.34886764  0.17030543  0.13863116     0.12600
H227        H  0.31573525  0.07418944  0.19717286     0.15300
C228        C  0.36520483  0.09407682  0.13925852    -0.23700
H229        H  0.30356437  0.16740942  0.17283035     0.05500
H230        H  0.29439552  0.14998000  0.22401032     0.08700
H231        H  0.26620790  0.13067219  0.18009888     0.08700
H232        H  0.37772357  0.09024282  0.16545921     0.08700
H233        H  0.38326593  0.10543397  0.11234579     0.08700
H234        H  0.34412039  0.07241134  0.12719534     0.05500
C235        C  0.00884448  0.40011594  0.34902008    -0.20300
C236        C  0.03619825  0.41069700  0.37699724    -0.06900
C237        C  0.05757040  0.40063113  0.37385973     0.14000
C238        C  0.05028851  0.37945178  0.34374018    -0.20400
C239        C  0.02206566  0.36792721  0.31693361    -0.06900
C240        C  0.00092436  0.37824543  0.31978733     0.14000
C241        C  0.46852851  0.36447105  0.29596178    -0.23700
H242        H  0.49225851  0.40745253  0.35310229     0.15200
H243        H  0.06583588  0.37083213  0.34229570     0.15300
C244        C  0.08790629  0.41200840  0.40224833    -0.23700
H245        H  0.45361154  0.37349338  0.30483899     0.05500
H246        H  0.45201811  0.34037349  0.30187208     0.08700
H247        H  0.47472675  0.36904227  0.26188493     0.08700
H248        H  0.07912825  0.40590588  0.43556988     0.08700
H249        H  0.10542569  0.43626696  0.39903362     0.08700
H250        H  0.10262763  0.40266014  0.39419635     0.05500
C251        C  0.19001590  0.04254150  0.30973152    -0.20300
C252        C  0.21773355  0.07201319  0.31352635    -0.06900
C253        C  0.21627246  0.08956299  0.34446942     0.14000
C254        C  0.18902394  0.07652287  0.37353814    -0.20400
C255        C  0.16233690  0.04670213  0.37152865    -0.06900
C256        C  0.16199025  0.02970005  0.33816782     0.14000
C257        C  0.13317357  0.99776822  0.33384089    -0.23700
H258        H  0.19103631  0.02921499  0.28576098     0.15200
H259        H  0.18862749  0.08981949  0.39815445     0.15300
C260        C  0.24279119  0.12220593  0.34759275    -0.23700
H261        H  0.13772072  0.98753584  0.30705320     0.05500
H262        H  0.10878884  0.99558244  0.32798337     0.08700
H263        H  0.12709947  0.48386200  0.36051535     0.08700
H264        H  0.26231342  0.13125191  0.32190812     0.08700
H265        H  0.25596812  0.12716170  0.37837491     0.08700
H266        H  0.22994740  0.13380413  0.34553163     0.05500
C267        C  0.07751294  0.10595278  0.30825919    -0.20300
C268        C  0.05235537  0.11168406  0.31054366    -0.06900
C269        C  0.02823303  0.09954556  0.34435484     0.14000
C270        C  0.03094504  0.08328208  0.37616493    -0.20400
C271        C  0.05644111  0.07800222  0.37452903    -0.06900
C272        C  0.07970665  0.08898466  0.33978807     0.14000
C273        C  0.10770331  0.08396341  0.33679507    -0.23700
H274        H  0.09600779  0.11544810  0.28242007     0.15200
H275        H  0.51109784  0.07213713  0.40099618     0.15300
C276        C  0.49724600  0.10058276  0.34476855    -0.23700
H277        H  0.12464894  0.09542119  0.30883124     0.05500
H278        H  0.09640603  0.06017972  0.33377049     0.08700
H279        H  0.12374009  0.09235591  0.36549126     0.08700
H280        H  0.48225433  0.09193518  0.31537373     0.08700
H281        H  0.50656422  0.12387441  0.34843629     0.08700
H282        H  0.47964537  0.08805657  0.37182055     0.05500
C283        C  0.05700611  0.40702296  0.18469527    -0.20300
C284        C  0.03164618  0.40142642  0.15590438    -0.06900
C285        C  0.99918682  0.37427926  0.15837970     0.14000
C286        C  0.99281684  0.35360563  0.18975232    -0.20400
C287        C  0.01810606  0.35901171  0.21850303    -0.06900
C288        C  0.05098325  0.38583985  0.21516501     0.14000
C289        C  0.08071729  0.39222892  0.24155329    -0.23700
H290        H  0.08210260  0.42762075  0.18235130     0.15200
H291        H  0.46697806  0.33347610  0.19449597     0.15300
C292        C  0.46999647  0.36771023  0.13100362    -0.23700
H293        H  0.10250121  0.39782025  0.22051940     0.05500
H294        H  0.07462455  0.37315854  0.26124928     0.08700
H295        H  0.08891051  0.41117677  0.26224713     0.08700
H296        H  0.97815055  0.36622006  0.09602545     0.08700
H297        H  0.46531933  0.38514615  0.13341280     0.08700
H298        H  0.44571137  0.34632868  0.13913369     0.05500
C299        C  0.02361243  0.07834974  0.21909398    -0.20300
C300        C  0.04455882  0.10889785  0.21178535    -0.06900
C301        C  0.06931529  0.12012138  0.17877570     0.14000
C302        C  0.07118253  0.10075678  0.15268704    -0.20400
C303        C  0.04970116  0.07020233  0.15893687    -0.06900
C304        C  0.02577073  0.05883774  0.19302992     0.14000
C305        C  0.50261437  0.02585639  0.19782422    -0.23700
H306        H  0.50495001  0.06846775  0.24239486     0.15200
H307        H  0.09003421  0.10966222  0.12722886     0.15300
C308        C  0.09512590  0.15262748  0.17197781    -0.23700
H309        H  0.48384065  0.02032927  0.22365893     0.05500
H310        H  0.51763470  0.01704619  0.20711759     0.08700
H311        H  0.48810692  0.01501674  0.16867437     0.08700
H312        H  0.10876001  0.16282939  0.20184127     0.08700
H313        H  0.08216706  0.16288827  0.16093459     0.08700
H314        H  0.11462243  0.15741345  0.14755628     0.05500
C315        C  0.22333585  0.04958119  0.18953716    -0.20300
C316        C  0.22646120  0.07123248  0.21576359    -0.06900
C317        C  0.20224764  0.07834149  0.21274583     0.14000
C318        C  0.17485183  0.06282696  0.18482148    -0.20400
C319        C  0.17204265  0.04151964  0.15814509    -0.06900
C320        C  0.19667441  0.03485173  0.16039337     0.14000
C321        C  0.19441334  0.01167966  0.13309039    -0.23700
H322        H  0.24178178  0.04404407  0.19229767     0.15200
H323        H  0.15647894  0.06848837  0.18231617     0.15300
C324        C  0.20552568  0.10314758  0.23668863    -0.23700
H325        H  0.21456760  0.00808722  0.14090345     0.05500
H326        H  0.19787317  0.01847906  0.09934763     0.08700
H327        H  0.16906545  0.99051824  0.13784559     0.08700
H328        H  0.22970435  0.11599113  0.25442962     0.08700
H329        H  0.18353817  0.09432581  0.25902475     0.08700
H330        H  0.20547457  0.11861262  0.21414316     0.05500
C331        C  0.37976320  0.43765182  0.69082085    -0.20300
C332        C  0.37712562  0.41727308  0.72008746    -0.06900
C333        C  0.40119288  0.40995257  0.71818763     0.14000
C334        C  0.42834285  0.42441948  0.68861784    -0.20400
C335        C  0.43108447  0.44497577  0.65951776    -0.06900
C336        C  0.40626524  0.45150744  0.66048731     0.14000
C337        C  0.40818207  0.47379451  0.63064207    -0.23700
H338        H  0.36144566  0.44336520  0.69265563     0.15200
H339        H  0.44669840  0.41869454  0.68711184     0.15300
C340        C  0.39799459  0.38606356  0.74539331    -0.23700
H341        H  0.38803036  0.47754460  0.63780739     0.05500
H342        H  0.40439699  0.46597200  0.59773668     0.08700
H343        H  0.43350552  0.49511098  0.63322527     0.08700
H344        H  0.37426435  0.37441373  0.76498343     0.08700
H345        H  0.42050483  0.39557027  0.76636172     0.08700
H346        H  0.39711230  0.36946084  0.72498007     0.05500
C347        C  0.38987705  0.40377670  0.84633221    -0.20300
C348        C  0.38910071  0.42300404  0.81797784    -0.06900
C349        C  0.41556925  0.45331097  0.81863048     0.14000
C350        C  0.44213755  0.46357838  0.84788399    -0.20400
C351        C  0.44182533  0.44443004  0.87756858    -0.06900
C352        C  0.41569758  0.41410147  0.87636627     0.14000
C353        C  0.41469190  0.39257938  0.90695891    -0.23700
H354        H  0.36911878  0.38063380  0.84624080     0.15200
H355        H  0.46228522  0.48685638  0.84908595     0.15300
C356        C  0.41482500  0.47507602  0.79065188    -0.23700
H357        H  0.39348666  0.36956339  0.90000639     0.05500
H358        H  0.41066986  0.39720371  0.93958853     0.08700
H359        H  0.43914699  0.39434617  0.90513097     0.08700
H360        H  0.39034425  0.47301556  0.79541077     0.08700
H361        H  0.41755389  0.47113569  0.75718880     0.08700
H362        H  0.43617795  0.49803957  0.79764035     0.05500
C363        C  0.25032649  0.37533949  0.66796073    -0.20300
C364        C  0.24045914  0.34709214  0.65598787    -0.06900
C365        C  0.26306496  0.33870343  0.66539897     0.14000
C366        C  0.29163329  0.35674829  0.69125602    -0.20400
C367        C  0.29790709  0.38265455  0.70815774    -0.06900
C368        C  0.27821185  0.39285937  0.69435619     0.14000
C369        C  0.28482716  0.42149898  0.70884148    -0.23700
H370        H  0.23489303  0.38328250  0.65937311     0.15200
H371        H  0.30715927  0.34919204  0.70157704     0.15300
C372        C  0.25704905  0.31058611  0.64966788    -0.23700
H373        H  0.28906009  0.43549792  0.68087101     0.05500
H374        H  0.30776996  0.43407531  0.72897352     0.08700
H375        H  0.26226516  0.41713824  0.72704148     0.08700
H376        H  0.25286073  0.30898141  0.61504398     0.08700
H377        H  0.23466859  0.29152413  0.66623826     0.08700
H378        H  0.27935811  0.30954032  0.65581806     0.05500
C379        C  0.09031002  0.41528845  0.71485804    -0.20300
C380        C  0.06683177  0.38467604  0.71455581    -0.06900
C381        C  0.03890759  0.37206398  0.68660453     0.14000
C382        C  0.03620968  0.39014470  0.65808348    -0.20400
C383        C  0.05987657  0.42076320  0.65763312    -0.06900
C384        C  0.08721034  0.43354864  0.68669955     0.14000
C385        C  0.11381416  0.46617753  0.68711665    -0.23700
H386        H  0.11121344  0.42481693  0.73701460     0.15200
H387        H  0.01496667  0.38020344  0.63633003     0.15300
C388        C  0.01083702  0.33967853  0.68690092    -0.23700
H389        H  0.13433505  0.47220393  0.71015720     0.05500
H390        H  0.10171511  0.47756925  0.69627191     0.08700
H391        H  0.12588843  0.47398660  0.65530683     0.08700
H392        H  0.98575741  0.33641197  0.69251772     0.08700
H393        H  0.51608898  0.32742183  0.70936530     0.08700
H394        H  0.01028695  0.33030346  0.65584099     0.05500
C395        C  0.03551825  0.38681040  0.80839497    -0.20300
C396        C  0.06195369  0.38275625  0.81331805    -0.06900
C397        C  0.08418888  0.39556761  0.84814798     0.14000
C398        C  0.07786406  0.41004125  0.87863016    -0.20400
C399        C  0.05116482  0.41368349  0.87438959    -0.06900
C400        C  0.03009142  0.40249910  0.83834606     0.14000
C401        C  0.00099195  0.40580648  0.83241504    -0.23700
H402        H  0.01848355  0.37694303  0.78179253     0.15200
H403        H  0.09475138  0.41944197  0.90549937     0.15300
C404        C  0.11551725  0.39523456  0.85385515    -0.23700
H405        H  0.98631193  0.39473936  0.80343766     0.05500
H406        H  0.01098290  0.42938455  0.82950432     0.08700
H407        H  0.98314768  0.39581589  0.85988190     0.08700
H408        H  0.12102266  0.38619368  0.82651892     0.08700
H409        H  0.11226734  0.38219672  0.88262195     0.08700
H410        H  0.13836846  0.41807118  0.85769980     0.05500
C411        C  0.15082897  0.35844372  0.66835172    -0.20300
C412        C  0.13367189  0.33416988  0.64142152    -0.06900
C413        C  0.09793851  0.31988348  0.63595553     0.14000
C414        C  0.07969112  0.32642734  0.66318847    -0.20400
C415        C  0.09659924  0.34787009  0.69419323    -0.06900
C416        C  0.13272583  0.36524567  0.69504486     0.14000
C417        C  0.15213994  0.38924889  0.72688103    -0.23700
H418        H  0.17826008  0.37036309  0.67205365     0.15200
H419        H  0.05196012  0.31343306  0.66196328     0.15300
C420        C  0.07834198  0.29759226  0.60215100    -0.23700
H421        H  0.18028617  0.40049956  0.72349204     0.05500
H422        H  0.14460804  0.37994958  0.75943050     0.08700
H423        H  0.14645356  0.40593052  0.72236931     0.08700
H424        H  0.05798593  0.27624419  0.61676893     0.08700
H425        H  0.09504958  0.29443641  0.58180975     0.08700
H426        H  0.06599277  0.30522331  0.58142199     0.05500
C427        C  0.10222242  0.11854533  0.71567148    -0.20300
C428        C  0.08093947  0.12854242  0.71656179    -0.06900
C429        C  0.05405647  0.11734240  0.68715556     0.14000
C430        C  0.04992892  0.09726028  0.65683083    -0.20400
C431        C  0.07079967  0.08680767  0.65632065    -0.06900
C432        C  0.09750892  0.09781809  0.68603208     0.14000
C433        C  0.12166271  0.08843981  0.68605034    -0.23700
H434        H  0.12267233  0.12712433  0.73838814     0.15200
H435        H  0.02930106  0.08879884  0.63434549     0.15300
C436        C  0.02799173  0.12466180  0.68841307    -0.23700
H437        H  0.14241899  0.10077867  0.70938097     0.05500
H438        H  0.13370490  0.09231949  0.65430246     0.08700
H439        H  0.10739157  0.06487495  0.69475886     0.08700
H440        H  0.02985317  0.13648027  0.65886145     0.08700
H441        H  0.03108712  0.13824005  0.71573141     0.08700
H442        H  0.00186945  0.10404197  0.69107270     0.05500
C443        C  0.04403464  0.07311009  0.85277600    -0.20300
C444        C  0.07213677  0.07973902  0.87719787    -0.06900
C445        C  0.10480399  0.10548075  0.86825595     0.14000
C446        C  0.10824320  0.12498630  0.83675489    -0.20400
C447        C  0.07979242  0.11934404  0.81412614    -0.06900
C448        C  0.04743692  0.09284249  0.82149236     0.14000
C449        C  0.01635176  0.08596853  0.79771617    -0.23700
H450        H  0.01916651  0.05291633  0.85920532     0.15200
H451        H  0.13297488  0.14549500  0.83111306     0.15300
C452        C  0.13596703  0.11239418  0.89198348    -0.23700
H453        H  0.49679471  0.06772967  0.81049495     0.05500
H454        H  0.02016125  0.08446028  0.76352348     0.08700
H455        H  0.51720873  0.10670447  0.80540080     0.08700
H456        H  0.13937450  0.09428990  0.88811184     0.08700
H457        H  0.13285038  0.11497423  0.92605259     0.08700
H458        H  0.15963229  0.13305664  0.88021942     0.05500
C459        C  0.08435001  0.20372299  0.69012264    -0.20300
C460        C  0.10466384  0.19434636  0.70366128    -0.06900
C461        C  0.13892278  0.20967093  0.68931159     0.14000
C462        C  0.15305581  0.23585317  0.66563770    -0.20400
C463        C  0.13401692  0.24760934  0.65661642    -0.06900
C464        C  0.09826013  0.22993484  0.66673616     0.14000
C465        C  0.07433393  0.23859142  0.65539860    -0.23700
H466        H  0.05804280  0.19185954  0.70142523     0.15200
H467        H  0.17977890  0.24799802  0.65632413     0.15300
C468        C  0.16128488  0.19953120  0.70145821    -0.23700
H469        H  0.04728998  0.22116354  0.66398768     0.05500
H470        H  0.07533588  0.24226255  0.62074274     0.08700
H471        H  0.08125101  0.25854357  0.67274547     0.08700
H472        H  0.15046012  0.17740934  0.68849267     0.08700
H473        H  0.16272765  0.19859384  0.73637175     0.08700
H474        H  0.18778341  0.21451880  0.68871727     0.05500
N475        N  0.08313890  0.64835155  0.74682552    -0.03500
C476        C  0.09036917  0.67575197  0.74141751    -0.00900
C477        C  0.09048061  0.68739275  0.77985580    -0.23800
C478        C  0.08385350  0.66693553  0.81016973    -0.24000
C479        C  0.07968781  0.64338146  0.78925514    -0.01000
H480        H  0.09677644  0.70919497  0.78535491     0.12800
H481        H  0.08374237  0.66949173  0.84401186     0.12800
N482        N  0.07086959  0.86663772  0.74447634    -0.03500
C483        C  0.06268856  0.86195459  0.78622871    -0.00900
C484        C  0.06152488  0.83772137  0.80058969    -0.23800
C485        C  0.07057691  0.82791559  0.76694961    -0.24000
C486        C  0.07652955  0.84620015  0.73302660    -0.01000
H487        H  0.05722347  0.82952938  0.83281365     0.12800
H488        H  0.07530980  0.81097475  0.76804751     0.12800
C489        C  0.15312847  0.77957783  0.64151108     0.80200
N490        N  0.18801426  0.79721995  0.64452132    -0.78100
C491        C  0.20581796  0.82695268  0.63949833     0.82600
N492        N  0.18799848  0.83874673  0.63055303    -0.78100
C493        C  0.15324696  0.82205843  0.63033047     0.82700
N494        N  0.13631740  0.79246300  0.63418385    -0.79800
N495        N  0.35265221  0.90618656  0.75344540    -0.03500
C496        C  0.31870247  0.89369096  0.74759832    -0.00900
C497        C  0.30230296  0.89008519  0.78567151    -0.23800
C498        C  0.32687081  0.90093151  0.81615185    -0.24000
C499        C  0.35749713  0.91100203  0.79563799    -0.01000
H500        H  0.27523238  0.88019471  0.79069971     0.12800
H501        H  0.32286763  0.90129347  0.84976109     0.12800
Zr502      Zr  0.05834475  0.99327832  0.10416207     2.17500
O503        O  0.02655778  0.97990332  0.17090020    -0.51400
O504        O  0.11444724  0.51864512  0.13553798    -0.74600
O505        O  0.04788380  0.94848776  0.13731362    -0.81400
O506        O  0.05835703  0.56193794  0.08578655    -0.83100
O507        O  0.03723902  0.91555032  0.08650793    -0.78700
O508        O  0.05296939  0.53018816  0.13665377    -0.90400
O509        O  0.15507114  0.53140850  0.08504313    -0.76300
O510        O  0.08879199  0.97970036  0.06168556    -0.85800
O511        O  0.09911248  0.53625657  0.05948026    -0.85500
O512        O  0.01578637  0.95252248  0.06250581    -0.72300
O513        O  0.02580350  0.50565960  0.05974117    -0.84400
Zr514      Zr  0.05300537  0.99278433  0.93609780     2.26400
Zr515      Zr  0.04700304  0.93998421  0.01861431     2.06300
Zr516      Zr  0.06641085  0.54744854  0.01702218     2.10000
Zr517      Zr  0.12850234  0.52214419  0.01653981     1.78800
O518        O  0.03535933  0.57033407  0.01227381    -0.93200
O519        O  0.16034208  0.49994225  0.01208332    -0.41000
O520        O  0.09658609  0.53417594  0.97348691    -0.77600
O521        O  0.08723722  0.98187728  0.97622137    -0.96300
O522        O  0.01327195  0.95060059  0.97767685    -0.89600
O523        O  0.02348032  0.50745034  0.97583283    -0.92500
C524        C  0.14544488  0.52956256  0.12353645     1.01300
C525        C  0.05399738  0.55293892  0.12438775     1.14200
C526        C  0.03966985  0.92315332  0.12517545     1.05000
O527        O  0.08762428  0.92641996  0.02071152    -0.94600
O528        O  0.04911516  0.92329932  0.94822562    -0.90400
O529        O  0.04875966  0.95301795  0.89833382    -0.83500
C530        C  0.04909933  0.93088767  0.90962914     1.11600
O531        O  0.44813955  0.95564680  0.08014895    -0.96600
Zr532      Zr  0.48479076  0.96565464  0.01878254     1.88900
O533        O  0.99877655  0.96964207  0.90027950    -0.73200
O534        O  0.99704174  0.88983110  0.01035636    -0.52500
O535        O  0.43956172  0.91348393  0.02667083    -0.97200
O536        O  0.45618449  0.99079263  0.01393792    -0.54400
O537        O  0.45858698  0.95146219  0.94964522    -0.73800
C538        C  0.46890631  0.95647842  0.91097748     0.98600
O539        O  0.09160350  0.50938413  0.87226613    -0.62600
O540        O  0.12075596  0.59519067  0.02417669    -0.57400
O541        O  0.05958099  0.53445537  0.89698229    -0.94100
O542        O  0.07296158  0.56878388  0.94666107    -0.92500
O543        O  0.17238753  0.57478480  0.01798476    -0.92800
O544        O  0.16629630  0.53883562  0.95478145    -0.91600
C545        C  0.06819582  0.55989791  0.90830277     1.17400
H546        H  0.11474988  0.55279660  0.07683214     0.33400
H547        H  0.09960945  0.97724252  0.95753293     0.44200
H548        H  0.01159205  0.51336012  0.95859135     0.37700
H549        H  0.99977300  0.93612562  0.08076817     0.34200
H550        H  0.18422049  0.51599876  0.01889606     0.26000
H551        H  0.00356476  0.87728105  0.02302166     0.32000
H552        H  0.41872566  0.91125704  0.01565818     0.37900
H553        H  0.19375045  0.57650618  0.02511287     0.32300
H554        H  0.11949674  0.60829200  0.00398625     0.31200
H555        H  0.05342806  0.59169749  0.01076745     0.32900
H556        H  0.45298867  0.99232818  0.98339951     0.31800
H557        H  0.15607796  0.54522876  0.93416972     0.35800
H558        H  0.10886409  0.53065800  0.87626346     0.28600
H559        H  0.04002759  0.97720970  0.19182582     0.32800
H560        H  0.42494074  0.94741672  0.06899776     0.35700
H561        H  0.11949230  0.60219845  0.05231331     0.28300
H562        H  0.10469542  0.50064091  0.87647889     0.41100
H563        H  0.09592160  0.92996624  0.05012650     0.31200
H564        H  0.14964717  0.98436692  0.03992547     0.38800
H565        H  0.47372445  0.01121636  0.02241146     0.30700
H566        H  0.47932303  0.88805077  0.03062081     0.30700
H567        H  0.50698560  0.96022994  0.16665499     0.31000
Zr568      Zr  0.04785512  0.99589086  0.60348205     2.17500
O569        O  0.07104835  0.50231466  0.67197125    -0.51400
O570        O  0.99143098  0.97018075  0.63909458    -0.74600
O571        O  0.06073380  0.54085015  0.63459924    -0.81400
O572        O  0.05300769  0.93011109  0.58880516    -0.83100
O573        O  0.05936506  0.56967215  0.58419892    -0.78700
O574        O  0.05805944  0.96183364  0.63824693    -0.90400
O575        O  0.45073195  0.95411508  0.59022364    -0.76300
O576        O  0.01360625  0.50659030  0.56074529    -0.85800
O577        O  0.00995824  0.95317574  0.56322202    -0.85500
O578        O  0.08777527  0.53686656  0.55836489    -0.72300
O579        O  0.08383944  0.98783853  0.56078902    -0.84400
Zr580      Zr  0.05162854  0.99709259  0.43524194     2.26400
Zr581      Zr  0.05393258  0.54739924  0.51600307     2.06300
Zr582      Zr  0.04551166  0.94530227  0.52008856     2.10000
Zr583      Zr  0.47759635  0.96395482  0.52164083     1.78800
O584        O  0.08566000  0.93127808  0.51664260    -0.93200
O585        O  0.44424795  0.98478810  0.51682799    -0.41000
O586        O  0.01138553  0.95515363  0.47801015    -0.77600
O587        O  0.01486609  0.50521456  0.47503006    -0.96300
O588        O  0.08859400  0.53860373  0.47320055    -0.89600
O589        O  0.08512244  0.98603653  0.47579623    -0.92500
C590        C  0.46077256  0.95760693  0.62844052     1.01300
C591        C  0.05774895  0.93945445  0.62681111     1.14200
C592        C  0.06276777  0.56409814  0.62261575     1.05000
O593        O  0.01069953  0.55802350  0.51487436    -0.94600
O594        O  0.05576423  0.56631019  0.44499882    -0.90400
O595        O  0.05585122  0.53669423  0.39568943    -0.83500
C596        C  0.05674949  0.55934269  0.40654712     1.11600
O597        O  0.16112871  0.54553898  0.57278483    -0.96600
Zr598      Zr  0.12129015  0.52711436  0.51408255     1.88900
O599        O  0.10331145  0.51828982  0.39431734    -0.73200
O600        O  0.10137489  0.59910655  0.51188541    -0.52500
O601        O  0.16372253  0.58005320  0.50965697    -0.97200
O602        O  0.15379609  0.50537799  0.51600517    -0.54400
O603        O  0.14568401  0.53823904  0.44292792    -0.73800
C604        C  0.13487226  0.53285379  0.40474247     0.98600
O605        O  0.01095013  0.98032641  0.37752673    -0.62600
O606        O  0.99572211  0.89469111  0.52716717    -0.57400
O607        O  0.04475015  0.95576327  0.39963192    -0.94100
O608        O  0.04205152  0.92513159  0.45056399    -0.92500
O609        O  0.43734647  0.91075908  0.52631506    -0.92800
O610        O  0.43748633  0.94402057  0.46331425    -0.91600
C611        C  0.04214992  0.93243605  0.41181897     1.17400
H612        H  0.99532200  0.93626964  0.58126530     0.33400
H613        H  0.00192091  0.50946773  0.45675739     0.44200
H614        H  0.09765011  0.98110829  0.45794388     0.37700
H615        H  0.10349680  0.55349633  0.57550212     0.34200
H616        H  0.42034060  0.96813596  0.52306042     0.26000
H617        H  0.09134914  0.60988485  0.52042143     0.32000
H618        H  0.15600718  0.58689681  0.48628272     0.37900
H619        H  0.41596149  0.90736829  0.53800327     0.32300
H620        H  0.98117438  0.89190731  0.50284190     0.31200
H621        H  0.07115462  0.90953038  0.51723627     0.32900
H622        H  0.15364588  0.49929216  0.48667375     0.31800
H623        H  0.45065023  0.95690021  0.43876438     0.35800
H624        H  0.49523373  0.95923340  0.38073406     0.28600
H625        H  0.05883175  0.50778272  0.69072188     0.32800
H626        H  0.18414161  0.55453379  0.55985022     0.35700
H627        H  0.50527088  0.88228312  0.52329360     0.28300
H628        H  0.49854450  0.98888564  0.38194013     0.41100
H629        H  0.00083099  0.55332852  0.54383885     0.31200
H630        H  0.45101001  0.99758827  0.54169439     0.38800
H631        H  0.14452519  0.99201235  0.54144093     0.30700
H632        H  0.11663647  0.60193404  0.53535644     0.30700
H633        H  0.09475214  0.52009975  0.66918675     0.31000
N634        N  0.25253902  0.58318489  0.24626834    -0.03500
C635        C  0.28637180  0.59562533  0.23876527    -0.00900
C636        C  0.30361432  0.60111619  0.27626962    -0.23800
C637        C  0.27969039  0.59164585  0.30810546    -0.24000
C638        C  0.24863731  0.58091964  0.28898002    -0.01000
H639        H  0.33087955  0.61173919  0.28002157     0.12800
H640        H  0.28448661  0.59299481  0.34167373     0.12800
N641        N  0.04400135  0.62853697  0.23860753    -0.03500
C642        C  0.05640638  0.63431633  0.27854758    -0.00900
C643        C  0.06317860  0.66081226  0.29168160    -0.23800
C644        C  0.05347307  0.67128118  0.25962982    -0.24000
C645        C  0.04129655  0.65100021  0.22767274    -0.01000
H646        H  0.07169655  0.67033236  0.32259981     0.12800
H647        H  0.05279999  0.69047175  0.26083629     0.12800
C648        C  0.44617384  0.71251755  0.13990220     0.80200
N649        N  0.41224524  0.69139470  0.13467299    -0.78100
C650        C  0.39992663  0.66237602  0.13324638     0.82600
N651        N  0.42277597  0.65501067  0.13505570    -0.78100
C652        C  0.45704019  0.67569273  0.13816609     0.82700
N653        N  0.46828412  0.70431605  0.14043483    -0.79800
N654        N  0.00992395  0.83764159  0.25437187    -0.03500
C655        C  0.99487028  0.80839165  0.25009880    -0.00900
C656        C  0.98860025  0.79469149  0.28904136    -0.23800
C657        C  0.99979690  0.81608541  0.31866490    -0.24000
C658        C  0.01230659  0.84206053  0.29674063    -0.01000
H659        H  0.97659485  0.77150997  0.29514473     0.12800
H660        H  0.99800383  0.81293675  0.35261952     0.12800
C661        C  0.49398909  0.76344074  0.15911735    -0.20300
C662        C  0.45829184  0.74221456  0.15657042    -0.06900
C663        C  0.43611562  0.74864329  0.17585091     0.14000
C664        C  0.45012082  0.77342930  0.20141643    -0.20400
C665        C  0.98483117  0.79179497  0.21052361    -0.06900
C666        C  0.00735453  0.78696300  0.18968364     0.14000
C667        C  0.04521297  0.80591782  0.19835472    -0.23700
H668        H  0.51140948  0.75992559  0.14279907     0.15200
H669        H  0.93290565  0.77835809  0.21743561     0.15300
C670        C  0.39766957  0.72884442  0.17300732    -0.23700
H671        H  0.05935028  0.79908700  0.17964846     0.05500
H672        H  0.04975612  0.80438578  0.23235558     0.08700
H673        H  0.05571588  0.82911659  0.18998158     0.08700
H674        H  0.38798619  0.70776150  0.18974729     0.08700
H675        H  0.38999601  0.72523595  0.13937063     0.08700
H676        H  0.38516577  0.73850893  0.18820729     0.05500
C677        C  0.03564861  0.67774776  0.16907014    -0.20300
C678        C  0.02069139  0.65163467  0.19295229    -0.06900
C679        C  0.48524241  0.63180094  0.19306503     0.14000
C680        C  0.46528879  0.63917226  0.17149484    -0.20400
C681        C  0.48009308  0.66666248  0.15125163    -0.06900
C682        C  0.01563679  0.68527325  0.14788462     0.14000
C683        C  0.03380052  0.71368918  0.12287704    -0.23700
H684        H  0.06321004  0.69353480  0.16978438     0.15200
H685        H  0.43769493  0.62411356  0.17344476     0.15300
C686        C  0.46732008  0.60344807  0.21804147    -0.23700
H687        H  0.06158567  0.72333008  0.11910076     0.05500
H688        H  0.03165142  0.73006631  0.13943353     0.08700
H689        H  0.52399001  0.71017387  0.09096036     0.08700
H690        H  0.97356140  0.60621715  0.24979286     0.08700
H691        H  0.47540910  0.58952917  0.20618384     0.08700
H692        H  0.43902026  0.59073631  0.21522906     0.05500
C693        C  0.34174766  0.64953054  0.15303223    -0.20300
C694        C  0.36280555  0.63977811  0.14401424    -0.06900
C695        C  0.34977528  0.61010233  0.15440525     0.14000
C696        C  0.32193531  0.59446876  0.18278449    -0.20400
C697        C  0.30484268  0.60660917  0.19778299    -0.06900
C698        C  0.31313779  0.63343691  0.18022814     0.14000
C699        C  0.29366906  0.64626180  0.19282300    -0.23700
H700        H  0.34920921  0.67092702  0.14181840     0.12600
H701        H  0.31453521  0.57319062  0.19484390     0.15300
C702        C  0.36420784  0.59409548  0.13665351    -0.23700
H703        H  0.30429083  0.66791829  0.17722447     0.05500
H704        H  0.29485469  0.64933888  0.22752415     0.08700
H705        H  0.26656915  0.63123894  0.18327743     0.08700
H706        H  0.37692258  0.58973521  0.16196115     0.08700
H707        H  0.38215645  0.60601637  0.10979581     0.08700
H708        H  0.34296954  0.57273146  0.12395545     0.05500
C709        C  0.01069469  0.90186798  0.35048379    -0.20300
C710        C  0.03780603  0.91213332  0.37871408    -0.06900
C711        C  0.05922164  0.90213200  0.37555916     0.14000
C712        C  0.05194919  0.88100474  0.34542473    -0.20400
C713        C  0.02370333  0.86951850  0.31869690    -0.06900
C714        C  0.00283799  0.88012560  0.32112759     0.14000
C715        C  0.47167735  0.86674094  0.29462607    -0.23700
H716        H  0.49499498  0.90902158  0.35270815     0.15200
H717        H  0.06732851  0.87221815  0.34415037     0.15300
C718        C  0.08950263  0.91344314  0.40402704    -0.23700
H719        H  0.45689227  0.87590137  0.30341118     0.05500
H720        H  0.45456779  0.84252115  0.29897670     0.08700
H721        H  0.47907991  0.87237886  0.26099058     0.08700
H722        H  0.08064325  0.90715962  0.43728553     0.08700
H723        H  0.10697184  0.93771764  0.40106705     0.08700
H724        H  0.10430465  0.90419250  0.39584656     0.05500
C725        C  0.18838961  0.54089221  0.30871769    -0.20300
C726        C  0.21673303  0.57002856  0.31333595    -0.06900
C727        C  0.21588110  0.58752967  0.34490536     0.14000
C728        C  0.18850043  0.57468467  0.37369934    -0.20400
C729        C  0.16105905  0.54518482  0.37074530    -0.06900
C730        C  0.16017983  0.52830705  0.33682294     0.14000
C731        C  0.13055700  0.49674569  0.33150220    -0.23700
H732        H  0.18897812  0.52762397  0.28426695     0.15200
H733        H  0.18853928  0.58792000  0.39876708     0.15300
C734        C  0.24318188  0.61995003  0.34897676    -0.23700
H735        H  0.13480031  0.48651250  0.30443971     0.05500
H736        H  0.10672705  0.49547093  0.32548955     0.08700
H737        H  0.13058857  0.98551483  0.36321003     0.08700
H738        H  0.26268806  0.62901306  0.32327319     0.08700
H739        H  0.25625260  0.62410377  0.37970570     0.08700
H740        H  0.23107841  0.63218736  0.34775173     0.05500
C741        C  0.07907332  0.60618571  0.30623141    -0.20300
C742        C  0.05469268  0.61284016  0.30866673    -0.06900
C743        C  0.03086657  0.60138587  0.34281351     0.14000
C744        C  0.03255901  0.58425960  0.37415742    -0.20400
C745        C  0.05716835  0.57793537  0.37230413    -0.06900
C746        C  0.08060576  0.58878168  0.33772136     0.14000
C747        C  0.10813992  0.58318573  0.33491305    -0.23700
H748        H  0.09749574  0.61528971  0.28030626     0.15200
H749        H  0.51113453  0.57209438  0.39848997     0.15300
C750        C  0.49843050  0.60147356  0.34268118    -0.23700
H751        H  0.12531887  0.59457268  0.30710075     0.05500
H752        H  0.09640623  0.55933583  0.33179086     0.08700
H753        H  0.12404174  0.59129149  0.36374484     0.08700
H754        H  0.48365036  0.59241755  0.31327626     0.08700
H755        H  0.50746215  0.62473671  0.34580962     0.08700
H756        H  0.48071335  0.58903205  0.36967788     0.05500
C757        C  0.05760192  0.90632167  0.18598100    -0.20300
C758        C  0.03186678  0.90086595  0.15796633    -0.06900
C759        C  0.99925270  0.87392764  0.16107628     0.14000
C760        C  0.99298264  0.85342346  0.19267647    -0.20400
C761        C  0.01856513  0.85882876  0.22093407    -0.06900
C762        C  0.05167296  0.88527142  0.21659325     0.14000
C763        C  0.08165769  0.89130697  0.24208731    -0.23700
H764        H  0.08285301  0.92670099  0.18295338     0.15200
H765        H  0.46774559  0.83332746  0.19645148     0.15300
C766        C  0.47038236  0.86765337  0.13331099    -0.23700
H767        H  0.10272202  0.89597177  0.22039816     0.05500
H768        H  0.07531461  0.87237687  0.26233250     0.08700
H769        H  0.09096077  0.91072199  0.26220662     0.08700
H770        H  0.97776011  0.86594318  0.09898912     0.08700
H771        H  0.46602853  0.88525879  0.13626645     0.08700
H772        H  0.44607520  0.84637530  0.14176254     0.05500
C773        C  0.02413016  0.57862278  0.21594637    -0.20300
C774        C  0.04571246  0.60922819  0.20987545    -0.06900
C775        C  0.07132507  0.62083855  0.17789126     0.14000
C776        C  0.07339667  0.60177359  0.15136096    -0.20400
C777        C  0.05114919  0.57115899  0.15620813    -0.06900
C778        C  0.02633218  0.55940210  0.18932563     0.14000
C779        C  0.50284317  0.52727047  0.19811085    -0.23700
H780        H  0.50624732  0.57034687  0.24275865     0.15200
H781        H  0.09285232  0.61092206  0.12660384     0.15300
C782        C  0.09759167  0.65341027  0.17259734    -0.23700
H783        H  0.48430133  0.52201387  0.22412696     0.05500
H784        H  0.51746823  0.51801813  0.20706845     0.08700
H785        H  0.48808273  0.51660977  0.16903719     0.08700
H786        H  0.11072657  0.66283777  0.20298956     0.08700
H787        H  0.08512138  0.66420593  0.16197799     0.08700
H788        H  0.11742857  0.65849885  0.14851235     0.05500
C789        C  0.22281843  0.54916909  0.18835711    -0.20300
C790        C  0.22576547  0.57042595  0.21529999    -0.06900
C791        C  0.20166611  0.57768975  0.21245860     0.14000
C792        C  0.17479083  0.56291321  0.18359172    -0.20400
C793        C  0.17232643  0.54212255  0.15602120    -0.06900
C794        C  0.19667201  0.53514500  0.15845260     0.14000
C795        C  0.19467978  0.51237723  0.13047852    -0.23700
H796        H  0.24108042  0.54342531  0.19107348     0.15200
H797        H  0.15650108  0.56867513  0.18124397     0.15300
C798        C  0.20447534  0.60184522  0.23769109    -0.23700
H799        H  0.21445677  0.50837746  0.13857185     0.05500
H800        H  0.19896614  0.51988255  0.09702118     0.08700
H801        H  0.16912891  0.49126297  0.13414040     0.08700
H802        H  0.22830277  0.61419834  0.25618716     0.08700
H803        H  0.18206800  0.59245105  0.25948910     0.08700
H804        H  0.20483693  0.61788049  0.21595034     0.05500
C805        C  0.38179750  0.93779213  0.69153994    -0.20300
C806        C  0.37888638  0.91742276  0.72103184    -0.06900
C807        C  0.40338031  0.91052632  0.72018802     0.14000
C808        C  0.43092863  0.92516151  0.69115270    -0.20400
C809        C  0.43372077  0.94550612  0.66161030    -0.06900
C810        C  0.40876354  0.95187700  0.66186943     0.14000
C811        C  0.41096694  0.97421086  0.63187174    -0.23700
H812        H  0.36333835  0.94335388  0.69268070     0.15200
H813        H  0.44949485  0.91965452  0.69031740     0.15300
C814        C  0.40025269  0.88687141  0.74788804    -0.23700
H815        H  0.39083593  0.97803597  0.63871745     0.05500
H816        H  0.40731876  0.96633764  0.59903181     0.08700
H817        H  0.43630976  0.99549846  0.63460458     0.08700
H818        H  0.37610992  0.87484389  0.76668016     0.08700
H819        H  0.42236535  0.89668785  0.76957339     0.08700
H820        H  0.40026476  0.87051614  0.72790562     0.05500
C821        C  0.39047603  0.90363769  0.84717587    -0.20300
C822        C  0.38963160  0.92288095  0.81893717    -0.06900
C823        C  0.41608471  0.95318662  0.81954898     0.14000
C824        C  0.44269226  0.96346247  0.84872291    -0.20400
C825        C  0.44256448  0.94427621  0.87814364    -0.06900
C826        C  0.41652159  0.91393154  0.87686626     0.14000
C827        C  0.41591730  0.89235057  0.90692875    -0.23700
H828        H  0.36976865  0.88048035  0.84703649     0.15200
H829        H  0.46278459  0.98675134  0.84998547     0.15300
C830        C  0.41533306  0.97493859  0.79155317    -0.23700
H831        H  0.39472675  0.86933841  0.89992825     0.05500
H832        H  0.41218033  0.89680988  0.93978993     0.08700
H833        H  0.44041059  0.89422284  0.90449492     0.08700
H834        H  0.39076081  0.97275060  0.79609522     0.08700
H835        H  0.41831766  0.97113378  0.75812140     0.08700
H836        H  0.43655482  0.99791067  0.79871601     0.05500
C837        C  0.25270122  0.87586814  0.66656777    -0.20300
C838        C  0.24142912  0.84692488  0.65652986    -0.06900
C839        C  0.26301454  0.83768291  0.66733879     0.14000
C840        C  0.29193434  0.85578216  0.69263611    -0.20400
C841        C  0.29955535  0.88255245  0.70773658    -0.06900
C842        C  0.28088001  0.89342120  0.69255358     0.14000
C843        C  0.28874883  0.92279577  0.70536741    -0.23700
H844        H  0.23805399  0.88439978  0.65695057     0.15200
H845        H  0.30662089  0.84766862  0.70411864     0.15300
C846        C  0.25542430  0.80852820  0.65416758    -0.23700
H847        H  0.29393610  0.93652048  0.67669712     0.05500
H848        H  0.31147033  0.93508839  0.72589584     0.08700
H849        H  0.26639351  0.91953876  0.72268853     0.08700
H850        H  0.25078369  0.80571592  0.61966160     0.08700
H851        H  0.23289233  0.79057796  0.67203342     0.08700
H852        H  0.27713459  0.80678127  0.66106612     0.05500
C853        C  0.09081713  0.91586836  0.71737222    -0.20300
C854        C  0.06737319  0.88526441  0.71612450    -0.06900
C855        C  0.04013642  0.87300952  0.68715383     0.14000
C856        C  0.03801040  0.89143505  0.65879320    -0.20400
C857        C  0.06158665  0.92201722  0.65932370    -0.06900
C858        C  0.08831965  0.93446919  0.68920738     0.14000
C859        C  0.11495275  0.96706481  0.69040025    -0.23700
H860        H  0.11126690  0.92510750  0.74015812     0.15200
H861        H  0.01723516  0.88177225  0.63636200     0.15300
C862        C  0.01212040  0.84063692  0.68611183    -0.23700
H863        H  0.13498887  0.97283165  0.71407290     0.05500
H864        H  0.10272569  0.97841920  0.69913553     0.08700
H865        H  0.12765219  0.97512789  0.65894358     0.08700
H866        H  0.98690050  0.83728380  0.69070327     0.08700
H867        H  0.51422377  0.82660990  0.70942165     0.08700
H868        H  0.01243894  0.83177063  0.65494964     0.05500
C869        C  0.03599504  0.88750550  0.80986297    -0.20300
C870        C  0.06152757  0.88236256  0.81487325    -0.06900
C871        C  0.08370170  0.89449985  0.84987514     0.14000
C872        C  0.07816710  0.90947706  0.88039637    -0.20400
C873        C  0.05225634  0.91412000  0.87610578    -0.06900
C874        C  0.03133011  0.90360390  0.83988354     0.14000
C875        C  0.00316077  0.90810651  0.83375480    -0.23700
H876        H  0.01905722  0.87819012  0.78308272     0.15200
H877        H  0.09495284  0.91834307  0.90741830     0.15300
C878        C  0.11408743  0.89283760  0.85582340    -0.23700
H879        H  0.98827000  0.89723759  0.80482205     0.05500
H880        H  0.01416260  0.93188293  0.83058651     0.08700
H881        H  0.98524743  0.89870188  0.86122686     0.08700
H882        H  0.11896302  0.88325443  0.82865604     0.08700
H883        H  0.11011365  0.87962091  0.88467151     0.08700
H884        H  0.13757814  0.91533698  0.85966102     0.05500
C885        C  0.15171140  0.85887603  0.67236971    -0.20300
C886        C  0.13506636  0.83555101  0.64379037    -0.06900
C887        C  0.09969245  0.82198893  0.63658297     0.14000
C888        C  0.08087881  0.82800154  0.66363438    -0.20400
C889        C  0.09702746  0.84839335  0.69606894    -0.06900
C890        C  0.13307973  0.86534299  0.69868694     0.14000
C891        C  0.15169154  0.88845820  0.73188557    -0.23700
H892        H  0.17895073  0.87017491  0.67746770     0.15200
H893        H  0.05325057  0.81540295  0.66100892     0.15300
C894        C  0.08111113  0.80095470  0.60109055    -0.23700
H895        H  0.17987857  0.89964529  0.72956040     0.05500
H896        H  0.14321690  0.87830279  0.76386534     0.08700
H897        H  0.14626633  0.90534759  0.72790694     0.08700
H898        H  0.06019520  0.77918962  0.61400889     0.08700
H899        H  0.09837552  0.79831537  0.58101961     0.08700
H900        H  0.06966735  0.80947929  0.58047220     0.05500
C901        C  0.09954003  0.61762157  0.71494797    -0.20300
C902        C  0.07868794  0.62808340  0.71472031    -0.06900
C903        C  0.05235810  0.61705383  0.68450235     0.14000
C904        C  0.04844959  0.59681438  0.65453490    -0.20400
C905        C  0.06895055  0.58597064  0.65502829    -0.06900
C906        C  0.09500978  0.59671704  0.68566334     0.14000
C907        C  0.11877630  0.58694119  0.68699058    -0.23700
H908        H  0.11952112  0.62595873  0.73828212     0.15200
H909        H  0.02826104  0.58857152  0.63145427     0.15300
C910        C  0.02656862  0.62469621  0.68445255    -0.23700
H911        H  0.13901630  0.59901990  0.71100007     0.05500
H912        H  0.13151713  0.59085729  0.65572048     0.08700
H913        H  0.10406341  0.56331370  0.69552699     0.08700
H914        H  0.02922145  0.63666271  0.65471452     0.08700
H915        H  0.02918678  0.63822298  0.71158689     0.08700
H916        H  0.00030020  0.60420547  0.68643919     0.05500
C917        C  0.04422132  0.57215580  0.84934156    -0.20300
C918        C  0.07247169  0.58018005  0.87453361    -0.06900
C919        C  0.10419135  0.60717148  0.86685903     0.14000
C920        C  0.10640822  0.62632234  0.83568789    -0.20400
C921        C  0.07764178  0.61917524  0.81233787    -0.06900
C922        C  0.04632441  0.59159425  0.81857317     0.14000
C923        C  0.01485792  0.58325524  0.79433578    -0.23700
H924        H  0.02009591  0.55111170  0.85497781     0.15200
H925        H  0.13032180  0.64766435  0.83085660     0.15300
C926        C  0.13564875  0.61577885  0.89142710    -0.23700
H927        H  0.49244697  0.56503799  0.80962982     0.05500
H928        H  0.01943506  0.58264573  0.76012513     0.08700
H929        H  0.51141454  0.60377745  0.80411816     0.08700
H930        H  0.14109186  0.59888918  0.88763384     0.08700
H931        H  0.13154956  0.61773001  0.92538710     0.08700
H932        H  0.15854850  0.63722431  0.88031183     0.05500
C933        C  0.08289690  0.70379026  0.68763542    -0.20300
C934        C  0.10270647  0.69424555  0.70261072    -0.06900
C935        C  0.13745207  0.70977447  0.69026398     0.14000
C936        C  0.15233651  0.73611893  0.66680248    -0.20400
C937        C  0.13365864  0.74799890  0.65636958    -0.06900
C938        C  0.09758411  0.73020658  0.66450788     0.14000
C939        C  0.07402004  0.73886811  0.65115932    -0.23700
H940        H  0.05622903  0.69181933  0.69749221     0.15200
H941        H  0.17931019  0.74828714  0.65886988     0.15300
C942        C  0.15949951  0.69974587  0.70452528    -0.23700
H943        H  0.04668201  0.72110797  0.65768907     0.05500
H944        H  0.07671813  0.74338171  0.61660685     0.08700
H945        H  0.07976971  0.75831090  0.66896106     0.08700
H946        H  0.14925150  0.67766298  0.69180946     0.08700
H947        H  0.15971963  0.69875683  0.73956217     0.08700
H948        H  0.18639847  0.71484331  0.69313024     0.05500
N949        N  0.59010847  0.15012653  0.74817632    -0.03500
C950        C  0.59793738  0.17772738  0.74270475    -0.00900
C951        C  0.60049331  0.19023355  0.78127610    -0.23800
C952        C  0.59465773  0.17007601  0.81167247    -0.24000
C953        C  0.58853833  0.14584999  0.79069322    -0.01000
H954        H  0.60732174  0.21221264  0.78665145     0.12800
H955        H  0.59570626  0.17302045  0.84551130     0.12800
N956        N  0.57192650  0.36731160  0.74310906    -0.03500
C957        C  0.56454925  0.36347874  0.78507885    -0.00900
C958        C  0.56479189  0.34015147  0.80054411    -0.23800
C959        C  0.57366071  0.32992162  0.76725865    -0.24000
C960        C  0.57825409  0.34714201  0.73249303    -0.01000
H961        H  0.56139274  0.33282018  0.83314254     0.12800
H962        H  0.57903258  0.31338938  0.76900771     0.12800
C963        C  0.65334404  0.27922436  0.63957548     0.80200
N964        N  0.68822798  0.29707980  0.64161608    -0.78100
C965        C  0.70574428  0.32674430  0.63647655     0.82600
N966        N  0.68758710  0.33831315  0.62809434    -0.78100
C967        C  0.65278011  0.32137687  0.62834472     0.82700
N968        N  0.63613281  0.29179730  0.63258152    -0.79800
N969        N  0.85135970  0.40483927  0.75211885    -0.03500
C970        C  0.81748585  0.39248210  0.74602012    -0.00900
C971        C  0.80097997  0.38903074  0.78394192    -0.23800
C972        C  0.82545301  0.39982240  0.81459152    -0.24000
C973        C  0.85611019  0.40969026  0.79430030    -0.01000
H974        H  0.77393298  0.37933278  0.78875603     0.12800
H975        H  0.82137608  0.40034296  0.84814140     0.12800
Zr976      Zr  0.55838970  0.49372097  0.10258017     2.17500
O977        O  0.52543553  0.47957966  0.16850161    -0.51400
O978        O  0.61463057  0.01793141  0.13791775    -0.74600
O979        O  0.54833126  0.44920699  0.13613692    -0.81400
O980        O  0.55925455  0.06160998  0.08673816    -0.83100
O981        O  0.53620947  0.41585639  0.08536264    -0.78700
O982        O  0.55308804  0.02960827  0.13770462    -0.90400
O983        O  0.65543719  0.03061721  0.08772370    -0.76300
O984        O  0.58850052  0.47970703  0.06030988    -0.85800
O985        O  0.59992818  0.03549371  0.06154135    -0.85500
O986        O  0.51556725  0.45322829  0.06080110    -0.72300
O987        O  0.52683816  0.00539425  0.06107099    -0.84400
Zr988      Zr  0.55351231  0.49342064  0.93453836     2.26400
Zr989      Zr  0.54643661  0.44021787  0.01714693     2.06300
Zr990      Zr  0.56780924  0.04701828  0.01840737     2.10000
Zr991      Zr  0.62916775  0.02103847  0.01895829     1.78800
O992        O  0.53672845  0.06984900  0.01282247    -0.93200
O993        O  0.65829247  0.99637282  0.01566773    -0.41000
O994        O  0.59776117  0.03331135  0.97531553    -0.77600
O995        O  0.58727991  0.48211686  0.97502220    -0.96300
O996        O  0.51321024  0.45133629  0.97596413    -0.89600
O997        O  0.52493341  0.00734909  0.97683925    -0.92500
C998        C  0.64566607  0.02882466  0.12613356     1.01300
C999        C  0.55434099  0.05244074  0.12530058     1.14200
C1000       C  0.53927624  0.42362779  0.12405034     1.05000
O1001       O  0.58603258  0.42560135  0.01995373    -0.94600
O1002       O  0.54890737  0.42365175  0.94670847    -0.90400
O1003       O  0.54799412  0.45309802  0.89682227    -0.83500
C1004       C  0.54864627  0.43113060  0.90811727     1.11600
O1005       O  0.94775788  0.45410903  0.08028569    -0.96600
Zr1006     Zr  0.98377960  0.46557554  0.01774715     1.88900
O1007       O  0.49958559  0.47165481  0.89844918    -0.73200
O1008       O  0.49635813  0.39008846  0.00914998    -0.52500
O1009       O  0.93919298  0.41316791  0.02379904    -0.97200
O1010       O  0.95361691  0.48939971  0.01380360    -0.54400
O1011       O  0.95719249  0.45117815  0.94879373    -0.73800
C1012       C  0.96741608  0.45603084  0.91009219     0.98600
O1013       O  0.59324209  0.00853219  0.87416305    -0.62600
O1014       O  0.62258755  0.09441454  0.02492023    -0.57400
O1015       O  0.56227439  0.03461788  0.89840475    -0.94100
O1016       O  0.57520785  0.06875993  0.94825201    -0.92500
O1017       O  0.67311997  0.07374035  0.01679118    -0.92800
O1018       O  0.66980203  0.03827141  0.96016571    -0.91600
C1019       C  0.57097360  0.06006428  0.90984211     1.17400
H1020       H  0.61544623  0.05194166  0.07908790     0.33400
H1021       H  0.59961803  0.47742012  0.95637508     0.44200
H1022       H  0.51341675  0.01353278  0.95940109     0.37700
H1023       H  0.49939503  0.43690148  0.07906236     0.34200
H1024       H  0.68267645  0.01195539  0.02097624     0.26000
H1025       H  0.50302789  0.37752929  0.02139356     0.32000
H1026       H  0.91810316  0.41097843  0.01391475     0.37900
H1027       H  0.67332819  0.08061498  0.04560291     0.32300
H1028       H  0.61954279  0.10843764  0.00961873     0.31200
H1029       H  0.55452400  0.09116975  0.01524566     0.32900
H1030       H  0.94936958  0.49018748  0.98340681     0.31800
H1031       H  0.65771276  0.03986770  0.93606199     0.35800
H1032       H  0.61113007  0.02959486  0.87881343     0.28600
H1033       H  0.53946227  0.47818217  0.19014297     0.32800
H1034       H  0.92445809  0.44607754  0.06967901     0.35700
H1035       H  0.62377780  0.09957485  0.05501838     0.28300
H1036       H  0.60546626  0.99898983  0.87817983     0.41100
H1037       H  0.59639605  0.43149645  0.04827734     0.31200
H1038       H  0.64905305  0.48353712  0.03681234     0.38800
H1039       H  0.97102290  0.51009573  0.02120311     0.30700
H1040       H  0.97984152  0.38762679  0.02758939     0.30700
H1041       H  0.00657555  0.46037280  0.16468461     0.31000
Zr1042     Zr  0.54576211  0.49457828  0.60226535     2.17500
O1043       O  0.57344515  0.00263394  0.67306359    -0.51400
O1044       O  0.48941358  0.46898154  0.63749990    -0.74600
O1045       O  0.56222104  0.04091445  0.63610389    -0.81400
O1046       O  0.54995288  0.42819352  0.58707394    -0.83100
O1047       O  0.56056977  0.06977326  0.58599038    -0.78700
O1048       O  0.55748136  0.46114476  0.63590837    -0.90400
O1049       O  0.94901132  0.45383273  0.58858708    -0.76300
O1050       O  0.51490520  0.00643068  0.56235783    -0.85800
O1051       O  0.50781423  0.45191208  0.56184945    -0.85500
O1052       O  0.58913898  0.03737863  0.55997954    -0.72300
O1053       O  0.58170270  0.48645449  0.55964016    -0.84400
Zr1054     Zr  0.55011893  0.49612880  0.43394222     2.26400
Zr1055     Zr  0.55492629  0.04751332  0.51778885     2.06300
Zr1056     Zr  0.54333512  0.44406963  0.51851455     2.10000
Zr1057     Zr  0.97596043  0.46428329  0.51994913     1.78800
O1058       O  0.58292269  0.42944925  0.51532369    -0.93200
O1059       O  0.94485410  0.48720268  0.51651020    -0.41000
O1060       O  0.50939105  0.45404207  0.47618208    -0.77600
O1061       O  0.51613499  0.00512383  0.47696091    -0.96300
O1062       O  0.58978729  0.03925125  0.47449359    -0.89600
O1063       O  0.58338182  0.48502862  0.47487406    -0.92500
C1064       C  0.95909409  0.45743344  0.62679612     1.01300
C1065       C  0.55608157  0.43821050  0.62474278     1.14200
C1066       C  0.56432237  0.06419809  0.62424688     1.05000
O1067       O  0.51313562  0.05977222  0.51792835    -0.94600
O1068       O  0.55472911  0.06571167  0.44705355    -0.90400
O1069       O  0.55646099  0.03679108  0.39796336    -0.83500
C1070       C  0.55611535  0.05883925  0.40868320     1.11600
O1071       O  0.66239078  0.04830500  0.57450609    -0.96600
Zr1072     Zr  0.62312643  0.02846715  0.51525805     1.88900
O1073       O  0.60484220  0.01870765  0.39564874    -0.73200
O1074       O  0.60381819  0.09866297  0.51299025    -0.52500
O1075       O  0.66385978  0.08155909  0.50849705    -0.97200
O1076       O  0.65830427  0.00923805  0.51668334    -0.54400
O1077       O  0.64733134  0.03929888  0.44411533    -0.73800
C1078       C  0.63644645  0.03360888  0.40599858     0.98600
O1079       O  0.51071213  0.48124327  0.37511592    -0.62600
O1080       O  0.49312098  0.39353105  0.52362542    -0.57400
O1081       O  0.54321084  0.45460292  0.39837294    -0.94100
O1082       O  0.54108668  0.42419879  0.44919925    -0.92500
O1083       O  0.93270536  0.41142293  0.52178771    -0.92800
O1084       O  0.93580119  0.44579540  0.46170596    -0.91600
C1085       C  0.54101467  0.43141279  0.41048191     1.17400
H1086       H  0.49312079  0.43497856  0.57982860     0.33400
H1087       H  0.50292766  0.00914735  0.45879829     0.44200
H1088       H  0.59605678  0.48013935  0.45723085     0.37700
H1089       H  0.60476648  0.05401316  0.57715470     0.34200
H1090       H  0.92061214  0.47095436  0.52198157     0.26000
H1091       H  0.59424493  0.11012205  0.51942097     0.32000
H1092       H  0.65605550  0.08736964  0.48389849     0.37900
H1093       H  0.93557143  0.40443792  0.54927870     0.32300
H1094       H  0.48075959  0.39035067  0.49692132     0.31200
H1095       H  0.56814188  0.40770503  0.51626381     0.32900
H1096       H  0.65291430  0.99797843  0.49035752     0.31800
H1097       H  0.94691245  0.44156553  0.43922706     0.35800
H1098       H  0.99321173  0.45823517  0.38014471     0.28600
H1099       H  0.56188230  0.00864077  0.69200367     0.32800
H1100       H  0.68564520  0.05847452  0.56180258     0.35700
H1101       H  0.00005767  0.38136902  0.51577861     0.28300
H1102       H  0.99638384  0.48783532  0.38129266     0.41100
H1103       H  0.50047639  0.05170817  0.54506043     0.31200
H1104       H  0.95174334  0.49938744  0.54207474     0.38800
H1105       H  0.64145495  0.48983176  0.53875844     0.30700
H1106       H  0.61813031  0.10153689  0.53763566     0.30700
H1107       H  0.59732831  0.02008961  0.66978347     0.31000
N1108       N  0.75361885  0.08379395  0.24750309    -0.03500
C1109       C  0.78739484  0.09648115  0.23938323    -0.00900
C1110       C  0.80526883  0.10307314  0.27658792    -0.23800
C1111       C  0.78176404  0.09405415  0.30886339    -0.24000
C1112       C  0.75033690  0.08248037  0.29024808    -0.01000
H1113       H  0.83264994  0.11411356  0.27981196     0.12800
H1114       H  0.78705660  0.09617692  0.34233481     0.12800
N1115       N  0.54254566  0.12710802  0.23948205    -0.03500
C1116       C  0.55288886  0.13169460  0.28032771    -0.00900
C1117       C  0.55809321  0.15737512  0.29470048    -0.23800
C1118       C  0.54941707  0.16849569  0.26246297    -0.24000
C1119       C  0.53950043  0.14946064  0.22915016    -0.01000
H1120       H  0.56491438  0.16587517  0.32637622     0.12800
H1121       H  0.54788009  0.18722349  0.26424058     0.12800
C1122       C  0.94565109  0.21236048  0.13814726     0.80200
N1123       N  0.91169804  0.19103646  0.13335750    -0.78100
C1124       C  0.89958900  0.16203205  0.13235842     0.82600
N1125       N  0.92257959  0.15487177  0.13453587    -0.78100
C1126       C  0.95675302  0.17565078  0.13785731     0.82700
N1127       N  0.96786808  0.20427168  0.13932253    -0.79800
N1128       N  0.50929949  0.33723071  0.25216005    -0.03500
C1129       C  0.49468315  0.30809213  0.24694185    -0.00900
C1130       C  0.48867962  0.29396249  0.28548292    -0.23800
C1131       C  0.49955254  0.31490853  0.31578010    -0.24000
C1132       C  0.51164128  0.34109278  0.29470384    -0.01000
H1133       H  0.47700169  0.27076095  0.29089638     0.12800
H1134       H  0.49775204  0.31129489  0.34963691     0.12800
C1135       C  0.99348805  0.26343915  0.15686882    -0.20300
C1136       C  0.95779534  0.24233768  0.15376655    -0.06900
C1137       C  0.93561326  0.24921656  0.17167513     0.14000
C1138       C  0.94944596  0.27396072  0.19737081    -0.20400
C1139       C  0.48461232  0.29186966  0.20690921    -0.06900
C1140       C  0.50728909  0.28755059  0.18525057     0.14000
C1141       C  0.54526979  0.30717211  0.19291402    -0.23700
H1142       H  0.01098767  0.25970921  0.14128439     0.15200
H1143       H  0.43243858  0.27760380  0.21477479     0.15300
C1144       C  0.89727654  0.22996201  0.16710850    -0.23700
H1145       H  0.55952423  0.30071323  0.17364457     0.05500
H1146       H  0.55054794  0.30594866  0.22672183     0.08700
H1147       H  0.55502294  0.33020703  0.18449592     0.08700
H1148       H  0.88660399  0.20892760  0.18447518     0.08700
H1149       H  0.89057328  0.22615901  0.13315495     0.08700
H1150       H  0.88488667  0.24020936  0.18066102     0.05500
C1151       C  0.53581760  0.17763539  0.17128049    -0.20300
C1152       C  0.52021715  0.15081805  0.19347658    -0.06900
C1153       C  0.98465568  0.13203508  0.19453329     0.14000
C1154       C  0.96478884  0.13946119  0.17287856    -0.20400
C1155       C  0.97970921  0.16675659  0.15194434    -0.06900
C1156       C  0.51645312  0.18576650  0.14994265     0.14000
C1157       C  0.53536540  0.21526667  0.12776713    -0.23700
H1158       H  0.56326993  0.19349684  0.17378219     0.15200
H1159       H  0.93720317  0.12455580  0.17507759     0.15300
C1160       C  0.96669100  0.10379435  0.21985841    -0.23700
H1161       H  0.56332413  0.22526941  0.12555002     0.05500
H1162       H  0.53218649  0.23062400  0.14571228     0.08700
H1163       H  0.02345662  0.20985816  0.09129201     0.08700
H1164       H  0.47146653  0.10387249  0.24724189     0.08700
H1165       H  0.97446315  0.08965161  0.20796700     0.08700
H1166       H  0.93837940  0.09125025  0.21740979     0.05500
C1167       C  0.84122887  0.14882264  0.15161875    -0.20300
C1168       C  0.86258823  0.13928370  0.14336564    -0.06900
C1169       C  0.85002736  0.10985226  0.15491265     0.14000
C1170       C  0.82239091  0.09449681  0.18359259    -0.20400
C1171       C  0.80512350  0.10662355  0.19789357    -0.06900
C1172       C  0.81281168  0.13295215  0.17913177     0.14000
C1173       C  0.79290818  0.14554278  0.19072916    -0.23700
H1174       H  0.84835301  0.16996000  0.13957635     0.12600
H1175       H  0.81538549  0.07353351  0.19655539     0.15300
C1176       C  0.86478313  0.09381508  0.13830638    -0.23700
H1177       H  0.80315816  0.16688902  0.17434605     0.05500
H1178       H  0.79408636  0.14915990  0.22528416     0.08700
H1179       H  0.76585329  0.13010433  0.18129997     0.08700
H1180       H  0.87755992  0.08995677  0.16414220     0.08700
H1181       H  0.88270080  0.10537160  0.11131779     0.08700
H1182       H  0.84369216  0.07217859  0.12616191     0.05500
C1183       C  0.50892506  0.40001786  0.35003128    -0.20300
C1184       C  0.53666387  0.41100803  0.37743364    -0.06900
C1185       C  0.55839994  0.40133047  0.37385064     0.14000
C1186       C  0.55105247  0.38006973  0.34384239    -0.20400
C1187       C  0.52245879  0.36815651  0.31758714    -0.06900
C1188       C  0.50103407  0.37816688  0.32083564     0.14000
C1189       C  0.96860193  0.36476822  0.29457396    -0.23700
H1190       H  0.99241940  0.40781525  0.35174138     0.15200
H1191       H  0.56681765  0.37167038  0.34211182     0.15300
C1192       C  0.58911928  0.41313646  0.40170151    -0.23700
H1193       H  0.95390687  0.37406700  0.30304708     0.05500
H1194       H  0.95180746  0.34069306  0.30063949     0.08700
H1195       H  0.97497998  0.36916536  0.26051291     0.08700
H1196       H  0.58074876  0.40709950  0.43515020     0.08700
H1197       H  0.60631727  0.43739299  0.39832269     0.08700
H1198       H  0.60406212  0.40405306  0.39329066     0.05500
C1199       C  0.69076552  0.04178441  0.31092803    -0.20300
C1200       C  0.71848952  0.07123811  0.31489798    -0.06900
C1201       C  0.71702750  0.08876577  0.34587175     0.14000
C1202       C  0.68947791  0.07578009  0.37443617    -0.20400
C1203       C  0.66263919  0.04602856  0.37204847    -0.06900
C1204       C  0.66256060  0.02895854  0.33903214     0.14000
C1205       C  0.63387612  0.99697118  0.33480209    -0.23700
H1206       H  0.69189665  0.02846586  0.28704536     0.15200
H1207       H  0.68897303  0.08906491  0.39898781     0.15300
C1208       C  0.74379822  0.12132705  0.34955341    -0.23700
H1209       H  0.63867932  0.98669163  0.30832930     0.05500
H1210       H  0.60946678  0.99464894  0.32851734     0.08700
H1211       H  0.62830617  0.48397522  0.36207917     0.08700
H1212       H  0.76349412  0.13045126  0.32408305     0.08700
H1213       H  0.75671449  0.12592656  0.38048137     0.08700
H1214       H  0.73123050  0.13315922  0.34759221     0.05500
C1215       C  0.57677259  0.10457820  0.30782943    -0.20300
C1216       C  0.55129199  0.10995005  0.30962755    -0.06900
C1217       C  0.52683321  0.09749693  0.34307207     0.14000
C1218       C  0.52962366  0.08143776  0.37515872    -0.20400
C1219       C  0.55556009  0.07667908  0.37416180    -0.06900
C1220       C  0.57901520  0.08775915  0.33958974     0.14000
C1221       C  0.60720244  0.08293839  0.33695738    -0.23700
H1222       H  0.59548892  0.11426353  0.28223709     0.15200
H1223       H  0.01263868  0.07416176  0.40224157     0.15300
C1224       C  0.99901856  0.10308312  0.34667718    -0.23700
H1225       H  0.62425676  0.09445254  0.30909821     0.05500
H1226       H  0.59608375  0.05918348  0.33394828     0.08700
H1227       H  0.62309507  0.09137554  0.36576665     0.08700
H1228       H  0.98329894  0.09392386  0.31792338     0.08700
H1229       H  0.00876838  0.12653112  0.34948137     0.08700
H1230       H  0.98199141  0.09122591  0.37444002     0.05500
C1231       C  0.55686667  0.40665582  0.18514905    -0.20300
C1232       C  0.53127914  0.40127444  0.15691946    -0.06900
C1233       C  0.49862362  0.37434375  0.15990835     0.14000
C1234       C  0.49231846  0.35362917  0.19120122    -0.20400
C1235       C  0.51784814  0.35884845  0.21940853    -0.06900
C1236       C  0.55087705  0.38545458  0.21554290     0.14000
C1237       C  0.58078687  0.39153770  0.24124630    -0.23700
H1238       H  0.58209940  0.42708170  0.18239521     0.15200
H1239       H  0.96756975  0.33331810  0.19266671     0.15300
C1240       C  0.97078692  0.36733217  0.12883158    -0.23700
H1241       H  0.60213843  0.39668672  0.21971942     0.05500
H1242       H  0.57458047  0.37246557  0.26102539     0.08700
H1243       H  0.58963854  0.41067283  0.26181246     0.08700
H1244       H  0.47688946  0.36653471  0.09796887     0.08700
H1245       H  0.96572073  0.38454972  0.13076854     0.08700
H1246       H  0.94658328  0.34582126  0.13669321     0.05500
C1247       C  0.52365265  0.07746456  0.21680253    -0.20300
C1248       C  0.54463302  0.10807092  0.21056926    -0.06900
C1249       C  0.57001513  0.11994602  0.17826755     0.14000
C1250       C  0.57247235  0.10110351  0.15170176    -0.20400
C1251       C  0.55096006  0.07047250  0.15692247    -0.06900
C1252       C  0.52641731  0.05848554  0.19036705     0.14000
C1253       C  0.00191040  0.02631545  0.20142106    -0.23700
H1254       H  0.00540992  0.06980310  0.24521730     0.15200
H1255       H  0.59177086  0.11046025  0.12674369     0.15300
C1256       C  0.59576670  0.15256897  0.17275315    -0.23700
H1257       H  0.98385380  0.02126019  0.22796718     0.05500
H1258       H  0.01692662  0.01736881  0.21002624     0.08700
H1259       H  0.98661328  0.01520622  0.17285147     0.08700
H1260       H  0.60880718  0.16223818  0.20310948     0.08700
H1261       H  0.58287892  0.16293079  0.16187321     0.08700
H1262       H  0.61573271  0.15787767  0.14873295     0.05500
C1263       C  0.72284368  0.04845057  0.19131782    -0.20300
C1264       C  0.72641835  0.07043606  0.21715222    -0.06900
C1265       C  0.70263532  0.07801091  0.21375657     0.14000
C1266       C  0.67551537  0.06293509  0.18528460    -0.20400
C1267       C  0.67246792  0.04146304  0.15870410    -0.06900
C1268       C  0.69639622  0.03405647  0.16184278     0.14000
C1269       C  0.69363428  0.01048843  0.13501852    -0.23700
H1270       H  0.74088719  0.04249524  0.19450278     0.15200
H1271       H  0.65754713  0.06901506  0.18236397     0.15300
C1272       C  0.70606514  0.10280475  0.23793454    -0.23700
H1273       H  0.71322075  0.00632936  0.14346354     0.05500
H1274       H  0.69759817  0.01723730  0.10122913     0.08700
H1275       H  0.66794072  0.98963901  0.13956997     0.08700
H1276       H  0.72996466  0.11522695  0.25628750     0.08700
H1277       H  0.68379743  0.09401650  0.25979011     0.08700
H1278       H  0.70665546  0.11863105  0.21549321     0.05500
C1279       C  0.88017215  0.43684519  0.69056178    -0.20300
C1280       C  0.87764062  0.41649452  0.71976803    -0.06900
C1281       C  0.90228889  0.40980702  0.71844260     0.14000
C1282       C  0.92974675  0.42477769  0.68934775    -0.20400
C1283       C  0.93211801  0.44506561  0.66002858    -0.06900
C1284       C  0.90682798  0.45103565  0.66055128     0.14000
C1285       C  0.90823679  0.47293065  0.63036849    -0.23700
H1286       H  0.86156445  0.44221030  0.69204315     0.15200
H1287       H  0.94851104  0.41950234  0.68817185     0.15300
C1288       C  0.89936535  0.38600885  0.74558445    -0.23700
H1289       H  0.88772398  0.47628871  0.63723933     0.05500
H1290       H  0.90462700  0.46493161  0.59759514     0.08700
H1291       H  0.93331926  0.49446657  0.63283346     0.08700
H1292       H  0.87535040  0.37386812  0.76462485     0.08700
H1293       H  0.92159692  0.39571191  0.76705276     0.08700
H1294       H  0.89928623  0.36978447  0.72515899     0.05500
C1295       C  0.88953939  0.40266621  0.84569951    -0.20300
C1296       C  0.88827904  0.42180468  0.81768513    -0.06900
C1297       C  0.91432792  0.45221036  0.81860289     0.14000
C1298       C  0.94074385  0.46272557  0.84811601    -0.20400
C1299       C  0.94103250  0.44363256  0.87728510    -0.06900
C1300       C  0.91559328  0.41317325  0.87547622     0.14000
C1301       C  0.91571139  0.39172168  0.90502849    -0.23700
H1302       H  0.86919484  0.37941312  0.84526345     0.15200
H1303       H  0.96048701  0.48608629  0.84963305     0.15300
C1304       C  0.91347826  0.47378109  0.79029647    -0.23700
H1305       H  0.89500392  0.36862236  0.89767277     0.05500
H1306       H  0.91175100  0.39577594  0.93802514     0.08700
H1307       H  0.94057243  0.39424752  0.90243894     0.08700
H1308       H  0.88862913  0.47119716  0.79412222     0.08700
H1309       H  0.91711001  0.47015678  0.75701163     0.08700
H1310       H  0.93429625  0.49682906  0.79774734     0.05500
C1311       C  0.75296881  0.37572924  0.66309285    -0.20300
C1312       C  0.74145467  0.34671941  0.65318429    -0.06900
C1313       C  0.76270656  0.33720019  0.66441518     0.14000
C1314       C  0.79113004  0.35488306  0.69058224    -0.20400
C1315       C  0.79869079  0.38158228  0.70587447    -0.06900
C1316       C  0.78073569  0.39292793  0.68985388     0.14000
C1317       C  0.78893709  0.42244612  0.70243274    -0.23700
H1318       H  0.73866230  0.38448027  0.65295309     0.15200
H1319       H  0.80541268  0.34648652  0.70249661     0.15300
C1320       C  0.75521327  0.30813674  0.65085727    -0.23700
H1321       H  0.79537133  0.43643863  0.67372862     0.05500
H1322       H  0.81095363  0.43426586  0.72410465     0.08700
H1323       H  0.76629365  0.41952575  0.71843251     0.08700
H1324       H  0.75059547  0.30548475  0.61633268     0.08700
H1325       H  0.73272405  0.29004731  0.66862795     0.08700
H1326       H  0.77699605  0.30645363  0.65755598     0.05500
C1327       C  0.59048808  0.41603128  0.71548892    -0.20300
C1328       C  0.56786928  0.38535561  0.71424536    -0.06900
C1329       C  0.54077812  0.37249311  0.68505027     0.14000
C1330       C  0.53798210  0.39046080  0.65650707    -0.20400
C1331       C  0.56066042  0.42115786  0.65717234    -0.06900
C1332       C  0.58726152  0.43416526  0.68725893     0.14000
C1333       C  0.61300277  0.46690611  0.68876009    -0.23700
H1334       H  0.61082532  0.42570825  0.73845698     0.15200
H1335       H  0.51729549  0.38032868  0.63394869     0.15300
C1336       C  0.51353598  0.33993748  0.68403113    -0.23700
H1337       H  0.63323825  0.47308214  0.71231604     0.05500
H1338       H  0.60002624  0.47754636  0.69792849     0.08700
H1339       H  0.62559704  0.47539848  0.65733101     0.08700
H1340       H  0.48792962  0.33589942  0.68819038     0.08700
H1341       H  0.01378843  0.32720036  0.71192039     0.08700
H1342       H  0.51445317  0.33121117  0.65301759     0.05500
C1343       C  0.53515375  0.38657773  0.80959193    -0.20300
C1344       C  0.56278976  0.38395870  0.81285474    -0.06900
C1345       C  0.58640806  0.39825914  0.84604729     0.14000
C1346       C  0.58036844  0.41278070  0.87681942    -0.20400
C1347       C  0.55227557  0.41470333  0.87450984    -0.06900
C1348       C  0.52979585  0.40211803  0.83990145     0.14000
C1349       C  0.49936555  0.40382600  0.83599222    -0.23700
H1350       H  0.51714058  0.37563728  0.78412911     0.15200
H1351       H  0.59827874  0.42328815  0.90253874     0.15300
C1352       C  0.61867867  0.39918263  0.84979010    -0.23700
H1353       H  0.48377099  0.39188399  0.80795663     0.05500
H1354       H  0.50804410  0.42706993  0.83266082     0.08700
H1355       H  0.48275419  0.39385644  0.86454131     0.08700
H1356       H  0.62314877  0.38929196  0.82265254     0.08700
H1357       H  0.61747701  0.38750980  0.87918963     0.08700
H1358       H  0.64114904  0.42240004  0.85122708     0.05500
C1359       C  0.65168709  0.35928958  0.66812036    -0.20300
C1360       C  0.63440445  0.33478092  0.64161549    -0.06900
C1361       C  0.59862567  0.32033550  0.63652302     0.14000
C1362       C  0.58043115  0.32672360  0.66406300    -0.20400
C1363       C  0.59747652  0.34842780  0.69467477    -0.06900
C1364       C  0.63361977  0.36616011  0.69482072     0.14000
C1365       C  0.65310345  0.39064968  0.72591198    -0.23700
H1366       H  0.67920126  0.37136834  0.67142112     0.15200
H1367       H  0.55268853  0.31346073  0.66329074     0.15300
C1368       C  0.57894437  0.29802675  0.60277884    -0.23700
H1369       H  0.68125529  0.40224912  0.72190836     0.05500
H1370       H  0.64617654  0.38171900  0.75868338     0.08700
H1371       H  0.64682497  0.40694563  0.72120093     0.08700
H1372       H  0.55884944  0.27661269  0.61747021     0.08700
H1373       H  0.59566039  0.29508600  0.58208824     0.08700
H1374       H  0.56629045  0.30552519  0.58236581     0.05500
C1375       C  0.60482304  0.11876237  0.71468666    -0.20300
C1376       C  0.58402806  0.12925621  0.71622569    -0.06900
C1377       C  0.55641909  0.11785731  0.68787253     0.14000
C1378       C  0.55113817  0.09716719  0.65785061    -0.20400
C1379       C  0.57160155  0.08631575  0.65662587    -0.06900
C1380       C  0.59896427  0.09743908  0.68539484     0.14000
C1381       C  0.62268652  0.08759970  0.68464910    -0.23700
H1382       H  0.62580027  0.12741671  0.73662914     0.15200
H1383       H  0.53000654  0.08862848  0.63612613     0.15300
C1384       C  0.53080585  0.12565485  0.68998572    -0.23700
H1385       H  0.64405490  0.10007442  0.70716673     0.05500
H1386       H  0.63392097  0.09092141  0.65249627     0.08700
H1387       H  0.60831300  0.06412095  0.69396568     0.08700
H1388       H  0.53225822  0.13726016  0.66039404     0.08700
H1389       H  0.53473257  0.13958916  0.71719278     0.08700
H1390       H  0.50458110  0.10525591  0.69351480     0.05500
C1391       C  0.54819519  0.07462414  0.85241602    -0.20300
C1392       C  0.57638094  0.08072811  0.87611008    -0.06900
C1393       C  0.60919628  0.10622450  0.86705486     0.14000
C1394       C  0.61283225  0.12584653  0.83565296    -0.20400
C1395       C  0.58436645  0.12068338  0.81360325    -0.06900
C1396       C  0.55171666  0.09463953  0.82162926     0.14000
C1397       C  0.52043329  0.08868382  0.79941410    -0.23700
H1398       H  0.52314905  0.05472850  0.85927250     0.15200
H1399       H  0.63773634  0.14612773  0.82974776     0.15300
C1400       C  0.64025837  0.11280774  0.89068063    -0.23700
H1401       H  0.99289687  0.06470656  0.80829146     0.05500
H1402       H  0.52321552  0.08707528  0.76498768     0.08700
H1403       H  0.01209031  0.10347740  0.80272256     0.08700
H1404       H  0.64336770  0.09454553  0.88666984     0.08700
H1405       H  0.63722380  0.11537137  0.92478860     0.08700
H1406       H  0.66404074  0.13339277  0.87896171     0.05500
C1407       C  0.58646993  0.20458598  0.69155557    -0.20300
C1408       C  0.60720249  0.19517711  0.70306999    -0.06900
C1409       C  0.64077749  0.21021668  0.68639406     0.14000
C1410       C  0.65387273  0.23598955  0.66208652    -0.20400
C1411       C  0.63470645  0.24788583  0.65520782    -0.06900
C1412       C  0.59947780  0.23053696  0.66781821     0.14000
C1413       C  0.57527582  0.23923886  0.65857778    -0.23700
H1414       H  0.56070456  0.19298157  0.70466546     0.15200
H1415       H  0.68004926  0.24779369  0.65062647     0.15300
C1416       C  0.66370904  0.20037373  0.69690044    -0.23700
H1417       H  0.54861050  0.22204658  0.66896022     0.05500
H1418       H  0.57474492  0.24235646  0.62398632     0.08700
H1419       H  0.58314531  0.25952721  0.67566698     0.08700
H1420       H  0.65227618  0.17792467  0.68485939     0.08700
H1421       H  0.66683115  0.20031820  0.73163028     0.08700
H1422       H  0.68957504  0.21506103  0.68226137     0.05500
N1423       N  0.58461988  0.64861184  0.74705707    -0.03500
C1424       C  0.59200596  0.67601486  0.74098254    -0.00900
C1425       C  0.59360676  0.68848968  0.77925644    -0.23800
C1426       C  0.58776994  0.66855270  0.81007043    -0.24000
C1427       C  0.58255097  0.64446384  0.78963599    -0.01000
H1428       H  0.60018336  0.71043260  0.78422570     0.12800
H1429       H  0.58851768  0.67166967  0.84384496     0.12800
N1430       N  0.57036422  0.86538536  0.74366015    -0.03500
C1431       C  0.56274234  0.86127650  0.78559054    -0.00900
C1432       C  0.56208550  0.83739438  0.80051358    -0.23800
C1433       C  0.57075887  0.82717646  0.76702151    -0.24000
C1434       C  0.57606739  0.84489608  0.73260363    -0.01000
H1435       H  0.55828091  0.82967230  0.83294897     0.12800
H1436       H  0.57577017  0.81041285  0.76850851     0.12800
C1437       C  0.65250945  0.77840161  0.63893416     0.80200
N1438       N  0.68732908  0.79600251  0.64268209    -0.78100
C1439       C  0.70520503  0.82577381  0.63837109     0.82600
N1440       N  0.68748475  0.83769228  0.62959853    -0.78100
C1441       C  0.65271131  0.82096645  0.62845839     0.82700
N1442       N  0.63580746  0.79132472  0.63114919    -0.79800
N1443       N  0.85184600  0.90331715  0.75358976    -0.03500
C1444       C  0.81774951  0.89016061  0.74766374    -0.00900
C1445       C  0.80081664  0.88467378  0.78587006    -0.23800
C1446       C  0.82512952  0.89497132  0.81658580    -0.24000
C1447       C  0.85617999  0.90661876  0.79612502    -0.01000
H1448       H  0.77356517  0.87393015  0.79079125     0.12800
H1449       H  0.82070653  0.89409115  0.85031293     0.12800
Zr1450     Zr  0.55926557  0.99331513  0.10320072     2.17500
O1451       O  0.52766025  0.98045407  0.16997572    -0.51400
O1452       O  0.61372655  0.51846904  0.13730927    -0.74600
O1453       O  0.54855079  0.94853588  0.13685600    -0.81400
O1454       O  0.55907354  0.56227755  0.08693073    -0.83100
O1455       O  0.53700737  0.91530413  0.08614649    -0.78700
O1456       O  0.55301679  0.53027609  0.13781893    -0.90400
O1457       O  0.65425190  0.53036104  0.08711569    -0.76300
O1458       O  0.58915507  0.97913672  0.06096060    -0.85800
O1459       O  0.59892913  0.53602759  0.06099202    -0.85500
O1460       O  0.51622144  0.95294169  0.06150337    -0.72300
O1461       O  0.52571908  0.50566061  0.06061716    -0.84400
Zr1462     Zr  0.55428366  0.99266531  0.93484717     2.26400
Zr1463     Zr  0.54691048  0.93966199  0.01796421     2.06300
Zr1464     Zr  0.56659514  0.54748713  0.01817731     2.10000
Zr1465     Zr  0.62832121  0.52175430  0.01838676     1.78800
O1466       O  0.53528332  0.57019633  0.01508661    -0.93200
O1467       O  0.65826374  0.49788468  0.01301419    -0.41000
O1468       O  0.59689206  0.53415372  0.97498818    -0.77600
O1469       O  0.58797226  0.98135461  0.97558610    -0.96300
O1470       O  0.51383969  0.95087864  0.97660658    -0.89600
O1471       O  0.52377457  0.50767666  0.97675029    -0.92500
C1472       C  0.64464578  0.52895718  0.12547655     1.01300
C1473       C  0.55445960  0.55322129  0.12551625     1.14200
C1474       C  0.53988762  0.92304601  0.12483291     1.05000
O1475       O  0.58679628  0.92536569  0.02124591    -0.94600
O1476       O  0.54862688  0.92253728  0.94761587    -0.90400
O1477       O  0.54768665  0.95179936  0.89747207    -0.83500
C1478       C  0.54810102  0.92974421  0.90893083     1.11600
O1479       O  0.94738856  0.95209956  0.08314451    -0.96600
Zr1480     Zr  0.98334605  0.96428428  0.02027440     1.88900
O1481       O  0.50035141  0.97133465  0.89887440    -0.73200
O1482       O  0.49639154  0.88968778  0.01051859    -0.52500
O1483       O  0.93881712  0.91182990  0.02616663    -0.97200
O1484       O  0.95283307  0.98777880  0.01654464    -0.54400
O1485       O  0.95708419  0.94998950  0.95118829    -0.73800
C1486       C  0.96734588  0.95466050  0.91250409     0.98600
O1487       O  0.59314178  0.51001684  0.87446927    -0.62600
O1488       O  0.62108747  0.59525728  0.02361524    -0.57400
O1489       O  0.56058940  0.53499120  0.89801671    -0.94100
O1490       O  0.57269272  0.56887297  0.94793302    -0.92500
O1491       O  0.67192933  0.57447610  0.01938604    -0.92800
O1492       O  0.66888182  0.53943125  0.95942348    -0.91600
C1493       C  0.56857167  0.56022388  0.90948613     1.17400
H1494       H  0.61453491  0.55250867  0.07844638     0.33400
H1495       H  0.60017576  0.97645119  0.95705412     0.44200
H1496       H  0.51200535  0.51368930  0.95947850     0.37700
H1497       H  0.50000686  0.93665684  0.07979727     0.34200
H1498       H  0.68214359  0.51312777  0.02106593     0.26000
H1499       H  0.50285508  0.87698445  0.02274886     0.32000
H1500       H  0.91744865  0.90973638  0.01787522     0.37900
H1501       H  0.69191827  0.57658307  0.03306978     0.32300
H1502       H  0.61763954  0.60902427  0.00825413     0.31200
H1503       H  0.55325680  0.59156592  0.01313559     0.32900
H1504       H  0.95127613  0.99098021  0.98607312     0.31800
H1505       H  0.65830095  0.54410733  0.93680375     0.35800
H1506       H  0.61048280  0.53119588  0.87911565     0.28600
H1507       H  0.54175839  0.97878360  0.19118135     0.32800
H1508       H  0.92431233  0.94513546  0.07282746     0.35700
H1509       H  0.62255513  0.60064453  0.05364512     0.28300
H1510       H  0.60593681  0.50102951  0.87899838     0.41100
H1511       H  0.59707475  0.93132278  0.04961347     0.31200
H1512       H  0.65047484  0.98375108  0.04139031     0.38800
H1513       H  0.96915551  0.00772299  0.02766772     0.30700
H1514       H  0.97956472  0.88797865  0.02993443     0.30700
H1515       H  0.00543830  0.96004128  0.16676364     0.31000
Zr1516     Zr  0.54828026  0.99533986  0.60345663     2.17500
O1517       O  0.56837503  0.50108787  0.67334330    -0.51400
O1518       O  0.49217804  0.97009741  0.63942999    -0.74600
O1519       O  0.56034336  0.54044948  0.63491319    -0.81400
O1520       O  0.55320966  0.92940804  0.58818723    -0.83100
O1521       O  0.55804912  0.56904791  0.58500312    -0.78700
O1522       O  0.55854006  0.96115061  0.63776465    -0.90400
O1523       O  0.95012751  0.95431022  0.58973701    -0.76300
O1524       O  0.51274532  0.50592882  0.56093690    -0.85800
O1525       O  0.51033116  0.95261383  0.56334628    -0.85500
O1526       O  0.58699514  0.53659203  0.55916310    -0.72300
O1527       O  0.58428837  0.98745548  0.56051094    -0.84400
Zr1528     Zr  0.55166681  0.99636816  0.43510178     2.26400
Zr1529     Zr  0.55320891  0.54708052  0.51680784     2.06300
Zr1530     Zr  0.54584285  0.94489473  0.51985804     2.10000
Zr1531     Zr  0.97747634  0.96476692  0.52137427     1.78800
O1532       O  0.58611796  0.93103161  0.51616429    -0.93200
O1533       O  0.94472230  0.98613375  0.51640460    -0.41000
O1534       O  0.51139307  0.95442753  0.47779018    -0.77600
O1535       O  0.51450682  0.50493225  0.47553480    -0.96300
O1536       O  0.58814979  0.53873451  0.47385002    -0.89600
O1537       O  0.58543391  0.98573152  0.47581702    -0.92500
C1538       C  0.95998731  0.95750826  0.62800353     1.01300
C1539       C  0.55804753  0.93870539  0.62618329     1.14200
C1540       C  0.56199205  0.56356439  0.62321852     1.05000
O1541       O  0.51093368  0.55879973  0.51594592    -0.94600
O1542       O  0.55463147  0.56604037  0.44607376    -0.90400
O1543       O  0.55664373  0.53735208  0.39677633    -0.83500
C1544       C  0.55655910  0.55951406  0.40768519     1.11600
O1545       O  0.66031694  0.54819949  0.57395072    -0.96600
Zr1546     Zr  0.62101605  0.52751653  0.51478278     1.88900
O1547       O  0.60326986  0.51804821  0.39482565    -0.73200
O1548       O  0.60229997  0.59821063  0.51403694    -0.52500
O1549       O  0.66285478  0.58048342  0.50868098    -0.97200
O1550       O  0.65440567  0.50665696  0.51871598    -0.54400
O1551       O  0.64552795  0.53832704  0.44360796    -0.73800
C1552       C  0.63480296  0.53276914  0.40537183     0.98600
O1553       O  0.51200658  0.98064082  0.37633071    -0.62600
O1554       O  0.49609664  0.89430465  0.52733327    -0.57400
O1555       O  0.54459303  0.95472585  0.39976676    -0.94100
O1556       O  0.54256421  0.92444937  0.45071823    -0.92500
O1557       O  0.93528000  0.91181921  0.52640432    -0.92800
O1558       O  0.93897915  0.94450040  0.46145880    -0.91600
C1559       C  0.54235097  0.93153532  0.41197022     1.17400
H1560       H  0.49581584  0.93572389  0.58147232     0.33400
H1561       H  0.50154766  0.50917144  0.45726786     0.44200
H1562       H  0.59806684  0.98084494  0.45809141     0.37700
H1563       H  0.60261297  0.55315211  0.57645522     0.34200
H1564       H  0.92061043  0.96939781  0.52120522     0.26000
H1565       H  0.59278754  0.60963823  0.52101702     0.32000
H1566       H  0.65466003  0.58686111  0.48524683     0.37900
H1567       H  0.91390329  0.90923588  0.53640575     0.32300
H1568       H  0.48244707  0.89088850  0.50175696     0.31200
H1569       H  0.57168076  0.90929094  0.51751443     0.32900
H1570       H  0.65158525  0.49755314  0.49092602     0.31800
H1571       H  0.94888393  0.96071506  0.44030647     0.35800
H1572       H  0.99356306  0.95923960  0.38376868     0.28600
H1573       H  0.55609058  0.50681599  0.69145435     0.32800
H1574       H  0.68333096  0.55612901  0.56179118     0.35700
H1575       H  0.00451589  0.88265197  0.52062624     0.28300
H1576       H  0.99848712  0.98957631  0.38227035     0.41100
H1577       H  0.49899141  0.55174928  0.54366969     0.31200
H1578       H  0.95069206  0.99813886  0.54204547     0.38800
H1579       H  0.64804522  0.99410567  0.53948621     0.30700
H1580       H  0.61633296  0.60053953  0.53872692     0.30700
H1581       H  0.59232730  0.51859389  0.67136516     0.31000
N1582       N  0.75239182  0.58356107  0.24699535    -0.03500
C1583       C  0.78610409  0.59569407  0.23926191    -0.00900
C1584       C  0.80346248  0.60115736  0.27666635    -0.23800
C1585       C  0.77969718  0.59199922  0.30866445    -0.24000
C1586       C  0.74863553  0.58143028  0.28968972    -0.01000
H1587       H  0.83071631  0.61163789  0.28023902     0.12800
H1588       H  0.78459286  0.59337521  0.34220575     0.12800
N1589       N  0.54446299  0.62901761  0.23937700    -0.03500
C1590       C  0.55527304  0.63381752  0.28000442    -0.00900
C1591       C  0.56072555  0.65962759  0.29422412    -0.23800
C1592       C  0.55192745  0.67069176  0.26195778    -0.24000
C1593       C  0.54152282  0.65140631  0.22887569    -0.01000
H1594       H  0.56767569  0.66820300  0.32585017     0.12800
H1595       H  0.55043263  0.68944281  0.26370505     0.12800
C1596       C  0.94585994  0.71269446  0.14121627     0.80200
N1597       N  0.91187443  0.69169456  0.13611553    -0.78100
C1598       C  0.89940333  0.66265263  0.13405644     0.82600
N1599       N  0.92209618  0.65510200  0.13565770    -0.78100
C1600       C  0.95638090  0.67564966  0.13884725     0.82700
N1601       N  0.96780282  0.70430652  0.14134977    -0.79800
N1602       N  0.51041192  0.83715689  0.25364992    -0.03500
C1603       C  0.49610072  0.80807767  0.24862227    -0.00900
C1604       C  0.49019019  0.79404619  0.28722560    -0.23800
C1605       C  0.50090528  0.81503977  0.31739283    -0.24000
C1606       C  0.51273421  0.84113761  0.29617014    -0.01000
H1607       H  0.47853389  0.77085841  0.29276570     0.12800
H1608       H  0.49921663  0.81151675  0.35126640     0.12800
C1609       C  0.99395673  0.76290334  0.16276062    -0.20300
C1610       C  0.95828400  0.74246019  0.15802810    -0.06900
C1611       C  0.93620012  0.74971702  0.17515622     0.14000
C1612       C  0.94995929  0.77433923  0.20106879    -0.20400
C1613       C  0.48530010  0.79171534  0.20878452    -0.06900
C1614       C  0.50768920  0.78771766  0.18574130     0.14000
C1615       C  0.54585659  0.80788634  0.19161699    -0.23700
H1616       H  0.01148759  0.75891376  0.14800017     0.15200
H1617       H  0.43320666  0.77691455  0.21930402     0.15300
C1618       C  0.89796303  0.73097646  0.16956080    -0.23700
H1619       H  0.55985399  0.80161054  0.17143065     0.05500
H1620       H  0.55227326  0.80711008  0.22506626     0.08700
H1621       H  0.55486024  0.83072761  0.18308052     0.08700
H1622       H  0.88667275  0.70984459  0.18689577     0.08700
H1623       H  0.89181391  0.72738638  0.13544763     0.08700
H1624       H  0.88572374  0.74148978  0.18260414     0.05500
C1625       C  0.53630719  0.67821002  0.16991498    -0.20300
C1626       C  0.52121139  0.65213456  0.19391830    -0.06900
C1627       C  0.98471317  0.63125876  0.19220235     0.14000
C1628       C  0.96462152  0.63886063  0.17145540    -0.20400
C1629       C  0.97936899  0.66643805  0.15145534    -0.06900
C1630       C  0.51638377  0.68562756  0.14820188     0.14000
C1631       C  0.53462918  0.71407772  0.12326102    -0.23700
H1632       H  0.56384785  0.69404270  0.17093322     0.15200
H1633       H  0.93702273  0.62381763  0.17356996     0.15300
C1634       C  0.96699701  0.60240306  0.21589845    -0.23700
H1635       H  0.56249772  0.72390166  0.12007614     0.05500
H1636       H  0.53205370  0.73033353  0.13950501     0.08700
H1637       H  0.02276972  0.70982043  0.09080917     0.08700
H1638       H  0.47355610  0.60814904  0.25189066     0.08700
H1639       H  0.97493068  0.58876603  0.20236147     0.08700
H1640       H  0.93867096  0.58977979  0.21355327     0.05500
C1641       C  0.84131238  0.64990702  0.15383498    -0.20300
C1642       C  0.86220478  0.64007341  0.14436040    -0.06900
C1643       C  0.84895661  0.61026494  0.15406708     0.14000
C1644       C  0.82114646  0.59451802  0.18247535    -0.20400
C1645       C  0.80438737  0.60678357  0.19819566    -0.06900
C1646       C  0.81282989  0.63378888  0.18118262     0.14000
C1647       C  0.79370432  0.64678143  0.19454197    -0.23700
H1648       H  0.84885257  0.67138053  0.14290341     0.12600
H1649       H  0.81358098  0.57309195  0.19404945     0.15300
C1650       C  0.86319816  0.59429366  0.13559215    -0.23700
H1651       H  0.80449956  0.66859590  0.17937967     0.05500
H1652       H  0.79503353  0.64959353  0.22931008     0.08700
H1653       H  0.76656252  0.63201113  0.18505311     0.08700
H1654       H  0.87578663  0.58954938  0.16058532     0.08700
H1655       H  0.88126174  0.60648951  0.10892570     0.08700
H1656       H  0.84188765  0.57314164  0.12244771     0.05500
C1657       C  0.51106043  0.90093866  0.35047313    -0.20300
C1658       C  0.53797140  0.91106916  0.37897881    -0.06900
C1659       C  0.55907079  0.90070914  0.37625018     0.14000
C1660       C  0.55168040  0.87942940  0.34627384    -0.20400
C1661       C  0.52381195  0.86830229  0.31896412    -0.06900
C1662       C  0.50324122  0.87922359  0.32104698     0.14000
C1663       C  0.97091972  0.86718467  0.29523448    -0.23700
H1664       H  0.99442470  0.90973255  0.35306177     0.15200
H1665       H  0.56692052  0.87050327  0.34520795     0.15300
C1666       C  0.58934987  0.91200603  0.40471827    -0.23700
H1667       H  0.95620922  0.87645113  0.30381402     0.05500
H1668       H  0.95389986  0.84302506  0.30037261     0.08700
H1669       H  0.97789678  0.87223437  0.26138994     0.08700
H1670       H  0.58053085  0.90600171  0.43802185     0.08700
H1671       H  0.60702839  0.93625191  0.40138774     0.08700
H1672       H  0.60392458  0.90249643  0.39683924     0.05500
C1673       C  0.68871889  0.54106308  0.30967375    -0.20300
C1674       C  0.71670913  0.57036187  0.31404273    -0.06900
C1675       C  0.71548312  0.58783299  0.34531111     0.14000
C1676       C  0.68804822  0.57485369  0.37404006    -0.20400
C1677       C  0.66102989  0.54518248  0.37143162    -0.06900
C1678       C  0.66053367  0.52828489  0.33780762     0.14000
C1679       C  0.63138548  0.49652590  0.33285705    -0.23700
H1680       H  0.68961052  0.52781955  0.28544140     0.15200
H1681       H  0.68775808  0.58808982  0.39884798     0.15300
C1682       C  0.74244397  0.62032985  0.34914689    -0.23700
H1683       H  0.63592409  0.48632705  0.30601172     0.05500
H1684       H  0.60726618  0.49474263  0.32674371     0.08700
H1685       H  0.63117702  0.98484550  0.36437220     0.08700
H1686       H  0.76221761  0.62937079  0.32376948     0.08700
H1687       H  0.75525198  0.62477133  0.38012189     0.08700
H1688       H  0.73006897  0.63232508  0.34717316     0.05500
C1689       C  0.57961017  0.60728103  0.30848636    -0.20300
C1690       C  0.55356121  0.61200170  0.30929050    -0.06900
C1691       C  0.52825359  0.59872273  0.34172698     0.14000
C1692       C  0.53042688  0.58215524  0.37353103    -0.20400
C1693       C  0.55675608  0.57788993  0.37342337    -0.06900
C1694       C  0.58141835  0.59015754  0.34016670     0.14000
C1695       C  0.61041416  0.58632839  0.33904868    -0.23700
H1696       H  0.59908847  0.61772455  0.28380021     0.15200
H1697       H  0.01431374  0.57551374  0.40028846     0.15300
C1698       C  0.00318585  0.60680598  0.34627002    -0.23700
H1699       H  0.62826328  0.59856710  0.31207110     0.05500
H1700       H  0.60017660  0.56277972  0.33562293     0.08700
H1701       H  0.62524280  0.59461418  0.36868065     0.08700
H1702       H  0.98743552  0.59902634  0.31741533     0.08700
H1703       H  0.01454363  0.63049035  0.35043170     0.08700
H1704       H  0.98582868  0.59490267  0.37375878     0.05500
C1705       C  0.55799860  0.90597397  0.18540210    -0.20300
C1706       C  0.53211604  0.90075202  0.15776594    -0.06900
C1707       C  0.49931778  0.87402766  0.16142017     0.14000
C1708       C  0.49316066  0.85334674  0.19270715    -0.20400
C1709       C  0.51887114  0.85856705  0.22061557    -0.06900
C1710       C  0.55202976  0.88492396  0.21610310     0.14000
C1711       C  0.58199084  0.89090545  0.24162905    -0.23700
H1712       H  0.58334314  0.92622165  0.18213665     0.15200
H1713       H  0.96760045  0.83336628  0.19627221     0.15300
C1714       C  0.97065786  0.86706404  0.13194496    -0.23700
H1715       H  0.60303251  0.89549817  0.21996520     0.05500
H1716       H  0.57562445  0.87201025  0.26197968     0.08700
H1717       H  0.59134055  0.91034984  0.26170027     0.08700
H1718       H  0.47675153  0.86644625  0.10002821     0.08700
H1719       H  0.96573498  0.88435741  0.13415315     0.08700
H1720       H  0.94646212  0.84559139  0.13999131     0.05500
C1721       C  0.52483132  0.57911738  0.21704367    -0.20300
C1722       C  0.54612151  0.60969981  0.21059873    -0.06900
C1723       C  0.57148978  0.62127213  0.17832748     0.14000
C1724       C  0.57354312  0.60216647  0.15185222    -0.20400
C1725       C  0.55165179  0.57154934  0.15720335    -0.06900
C1726       C  0.52714418  0.55986475  0.19066796     0.14000
C1727       C  0.00152812  0.52678118  0.19598356    -0.23700
H1728       H  0.00533627  0.56982354  0.24142770     0.15200
H1729       H  0.59280156  0.61129298  0.12685657     0.15300
C1730       C  0.59766404  0.65383715  0.17284780    -0.23700
H1731       H  0.98273741  0.52146364  0.22169930     0.05500
H1732       H  0.01569057  0.51710509  0.20493669     0.08700
H1733       H  0.98708299  0.51658333  0.16655402     0.08700
H1734       H  0.61091882  0.66334319  0.20315649     0.08700
H1735       H  0.58509789  0.66455597  0.16230703     0.08700
H1736       H  0.61741389  0.65890631  0.14863884     0.05500
C1737       C  0.72218319  0.54891370  0.19000548    -0.20300
C1738       C  0.72546853  0.57058612  0.21629178    -0.06900
C1739       C  0.70151590  0.57799103  0.21321191     0.14000
C1740       C  0.67439063  0.56290546  0.18476074    -0.20400
C1741       C  0.67155928  0.54165825  0.15785477    -0.06900
C1742       C  0.69583152  0.53460536  0.16044603     0.14000
C1743       C  0.69362814  0.51155245  0.13290716    -0.23700
H1744       H  0.74038434  0.54311484  0.19292349     0.15200
H1745       H  0.65620534  0.56876989  0.18217364     0.15300
C1746       C  0.70471933  0.60255234  0.23779097    -0.23700
H1747       H  0.71336482  0.50753392  0.14115480     0.05500
H1748       H  0.69783216  0.51878166  0.09931935     0.08700
H1749       H  0.66804607  0.49050719  0.13685143     0.08700
H1750       H  0.72856859  0.61489198  0.25625175     0.08700
H1751       H  0.68238611  0.59356497  0.25959934     0.08700
H1752       H  0.70528294  0.61848568  0.21560384     0.05500
C1753       C  0.88006743  0.93529382  0.69154886    -0.20300
C1754       C  0.87825866  0.91546005  0.72119488    -0.06900
C1755       C  0.90348829  0.90941688  0.71982771     0.14000
C1756       C  0.93093501  0.92474442  0.69072184    -0.20400
C1757       C  0.93269980  0.94461392  0.66109544    -0.06900
C1758       C  0.90655008  0.94960067  0.66120787     0.14000
C1759       C  0.90671454  0.97046436  0.63009030    -0.23700
H1760       H  0.86089586  0.94002846  0.69273825     0.15200
H1761       H  0.95017931  0.92001526  0.68974810     0.15300
C1762       C  0.90118265  0.88581957  0.74679139    -0.23700
H1763       H  0.88569848  0.97321850  0.63674344     0.05500
H1764       H  0.90298382  0.96185065  0.59766541     0.08700
H1765       H  0.93139976  0.99239257  0.63166779     0.08700
H1766       H  0.87710419  0.87316749  0.76564918     0.08700
H1767       H  0.92336713  0.89580441  0.76836860     0.08700
H1768       H  0.90170530  0.86994712  0.72622856     0.05500
C1769       C  0.88993590  0.90043973  0.84815426    -0.20300
C1770       C  0.88837395  0.91925594  0.81973815    -0.06900
C1771       C  0.91384604  0.94979491  0.82085120     0.14000
C1772       C  0.94034864  0.96067260  0.85031298    -0.20400
C1773       C  0.94096288  0.94187756  0.87973486    -0.06900
C1774       C  0.91572685  0.91136324  0.87836662     0.14000
C1775       C  0.91568631  0.89029788  0.90895652    -0.23700
H1776       H  0.86990362  0.87710293  0.84780694     0.15200
H1777       H  0.95977778  0.98410422  0.85176832     0.15300
C1778       C  0.91204226  0.97114512  0.79321356    -0.23700
H1779       H  0.89503994  0.86709589  0.90205393     0.05500
H1780       H  0.91144769  0.89474192  0.94160139     0.08700
H1781       H  0.94057573  0.89281319  0.90709977     0.08700
H1782       H  0.88684162  0.96786287  0.79752666     0.08700
H1783       H  0.91573683  0.96799553  0.75973210     0.08700
H1784       H  0.93235813  0.99428008  0.80096634     0.05500
C1785       C  0.75204219  0.87416158  0.66721295    -0.20300
C1786       C  0.74075040  0.84542931  0.65580420    -0.06900
C1787       C  0.76228775  0.83595072  0.66556125     0.14000
C1788       C  0.79123466  0.85355755  0.69104364    -0.20400
C1789       C  0.79893058  0.88004592  0.70743925    -0.06900
C1790       C  0.78027978  0.89121984  0.69339138     0.14000
C1791       C  0.78824329  0.92036799  0.70762631    -0.23700
H1792       H  0.73736422  0.88284011  0.65852897     0.15200
H1793       H  0.80583977  0.84517846  0.70173435     0.15300
C1794       C  0.75461418  0.80700493  0.65104569    -0.23700
H1795       H  0.79366734  0.93465815  0.67956820     0.05500
H1796       H  0.81083103  0.93215843  0.72845233     0.08700
H1797       H  0.76584733  0.91688202  0.72514303     0.08700
H1798       H  0.75005350  0.80483654  0.61650138     0.08700
H1799       H  0.73200087  0.78873221  0.66842865     0.08700
H1800       H  0.77626625  0.80507360  0.65735249     0.05500
C1801       C  0.59085671  0.91468174  0.71634895    -0.20300
C1802       C  0.56722643  0.88409943  0.71506374    -0.06900
C1803       C  0.54015668  0.87197816  0.68586908     0.14000
C1804       C  0.53816887  0.89053884  0.65764734    -0.20400
C1805       C  0.56178468  0.92111281  0.65845767    -0.06900
C1806       C  0.58853853  0.93340698  0.68826236     0.14000
C1807       C  0.61532681  0.96596991  0.68950964    -0.23700
H1808       H  0.61125004  0.92381456  0.73920146     0.15200
H1809       H  0.51745135  0.88099105  0.63513639     0.15300
C1810       C  0.51217454  0.83961682  0.68442687    -0.23700
H1811       H  0.63545328  0.97158736  0.71296067     0.05500
H1812       H  0.60327387  0.97741423  0.69858058     0.08700
H1813       H  0.62788731  0.97406296  0.65798349     0.08700
H1814       H  0.48691250  0.83621720  0.68879453     0.08700
H1815       H  0.01431824  0.82774994  0.71116799     0.08700
H1816       H  0.51273612  0.83093475  0.65320414     0.05500
C1817       C  0.53514968  0.88616648  0.80920544    -0.20300
C1818       C  0.56132785  0.88176751  0.81384996    -0.06900
C1819       C  0.58371895  0.89441579  0.84856456     0.14000
C1820       C  0.57772731  0.90897958  0.87930300    -0.20400
C1821       C  0.55120216  0.91288066  0.87543633    -0.06900
C1822       C  0.53010525  0.90200954  0.83934201     0.14000
C1823       C  0.50145310  0.90591980  0.83341600    -0.23700
H1824       H  0.51805685  0.87649869  0.78261629     0.15200
H1825       H  0.59471758  0.91821066  0.90609907     0.15300
C1826       C  0.61483082  0.89373954  0.85391910    -0.23700
H1827       H  0.48661871  0.89494393  0.80448701     0.05500
H1828       H  0.51195013  0.92960200  0.83036257     0.08700
H1829       H  0.48360792  0.89624176  0.86092391     0.08700
H1830       H  0.61988041  0.88441155  0.82656092     0.08700
H1831       H  0.61161784  0.88075152  0.88272528     0.08700
H1832       H  0.63789611  0.91650671  0.85746761     0.05500
C1833       C  0.65092917  0.85739929  0.67118947    -0.20300
C1834       C  0.63424665  0.83411436  0.64255635    -0.06900
C1835       C  0.59875452  0.82039549  0.63579762     0.14000
C1836       C  0.58002468  0.82631048  0.66321945    -0.20400
C1837       C  0.59632982  0.84678532  0.69554317    -0.06900
C1838       C  0.63238985  0.86376140  0.69784456     0.14000
C1839       C  0.65117590  0.88687209  0.73100845    -0.23700
H1840       H  0.67822379  0.86886608  0.67595244     0.15200
H1841       H  0.55237237  0.81363452  0.66088049     0.15300
C1842       C  0.57994422  0.79939594  0.60033453    -0.23700
H1843       H  0.67935278  0.89807103  0.72844030     0.05500
H1844       H  0.64289111  0.87670419  0.76300060     0.08700
H1845       H  0.64572342  0.90375517  0.72725782     0.08700
H1846       H  0.55904219  0.77765220  0.61332729     0.08700
H1847       H  0.59704251  0.79672359  0.57998213     0.08700
H1848       H  0.56841174  0.80796025  0.57996592     0.05500
C1849       C  0.60031154  0.61759349  0.71468056    -0.20300
C1850       C  0.57919337  0.62777221  0.71542760    -0.06900
C1851       C  0.55195703  0.61617929  0.68646637     0.14000
C1852       C  0.54759093  0.59584467  0.65638805    -0.20400
C1853       C  0.56850806  0.58541858  0.65574505    -0.06900
C1854       C  0.59531168  0.59655312  0.68538428     0.14000
C1855       C  0.61932210  0.58701592  0.68565722    -0.23700
H1856       H  0.62091042  0.62631230  0.73720061     0.15200
H1857       H  0.52679026  0.58722869  0.63413323     0.15300
C1858       C  0.52578818  0.62337718  0.68793969    -0.23700
H1859       H  0.64004916  0.59933499  0.70903052     0.05500
H1860       H  0.63141488  0.59080515  0.65396610     0.08700
H1861       H  0.60494818  0.56344476  0.69444273     0.08700
H1862       H  0.52708792  0.63469713  0.65810991     0.08700
H1863       H  0.52927100  0.63738617  0.71484822     0.08700
H1864       H  0.49975827  0.60273461  0.69145827     0.05500
C1865       C  0.54454034  0.57379746  0.85226213    -0.20300
C1866       C  0.57312913  0.58062376  0.87573964    -0.06900
C1867       C  0.60556430  0.60644192  0.86619386     0.14000
C1868       C  0.60831077  0.62582120  0.83495406    -0.20400
C1869       C  0.57940420  0.61987163  0.81309157    -0.06900
C1870       C  0.54724935  0.59335541  0.82122721     0.14000
C1871       C  0.51565584  0.58630534  0.79857162    -0.23700
H1872       H  0.51983103  0.55358562  0.85928242     0.15200
H1873       H  0.63287702  0.64637523  0.82877397     0.15300
C1874       C  0.63717287  0.61351134  0.88894809    -0.23700
H1875       H  0.99225992  0.56122764  0.80412461     0.05500
H1876       H  0.51882306  0.58473403  0.76421765     0.08700
H1877       H  0.00865699  0.59951864  0.79982434     0.08700
H1878       H  0.64072418  0.59553793  0.88439598     0.08700
H1879       H  0.63451568  0.61594746  0.92320672     0.08700
H1880       H  0.66056091  0.63428411  0.87692399     0.05500
C1881       C  0.58296664  0.70349362  0.68798621    -0.20300
C1882       C  0.60287538  0.69365611  0.70135318    -0.06900
C1883       C  0.63698654  0.70846232  0.68658002     0.14000
C1884       C  0.65139678  0.73454083  0.66257375    -0.20400
C1885       C  0.63293044  0.74687225  0.65397455    -0.06900
C1886       C  0.59724403  0.72972362  0.66449573     0.14000
C1887       C  0.57380808  0.73897546  0.65352269    -0.23700
H1888       H  0.55675697  0.69200623  0.69954471     0.15200
H1889       H  0.67798863  0.74624601  0.65282704     0.15300
C1890       C  0.65904795  0.69803692  0.69881224    -0.23700
H1891       H  0.54670075  0.72183006  0.66226212     0.05500
H1892       H  0.57473202  0.74273120  0.61889601     0.08700
H1893       H  0.58121185  0.75900868  0.67100907     0.08700
H1894       H  0.64787972  0.67578289  0.68617413     0.08700
H1895       H  0.66068479  0.69735489  0.73373000     0.08700
H1896       H  0.68550904  0.71272297  0.68582098     0.05500
loop_ 
_geom_bond_atom_site_label_1 
_geom_bond_atom_site_label_2 
_geom_bond_distance 
_geom_bond_site_symmetry_2 
_ccdc_geom_bond_type 
N1            C5   1.358       .  A
N1            C2   1.359       .  A
N1          C428   1.443       .  S
C2            C3   1.381       .  A
C2          C460   1.479       .  S
C3            C4   1.370       .  A
C3            H6   1.082       .  S
C4            C5   1.380       .  A
C4            H7   1.082       .  S
C5          C447   1.476       .  S
N8           C12   1.357       .  A
N8            C9   1.357       .  A
N8          C380   1.441       .  S
C9           C10   1.383       .  A
C9          C396   1.482       .  S
C10          C11   1.373       .  A
C10          H13   1.082       .  S
C11          C12   1.381       .  A
C11          H14   1.082       .  S
C12         C415   1.478       .  S
C15          N16   1.366       .  A
C15          N20   1.359       .  A
C15         C463   1.507       .  S
N16          C17   1.363       .  A
C17          N18   1.360       .  A
C17         C364   1.504       .  S
N18          C19   1.358       .  A
C19          N20   1.358       .  A
C19         C412   1.493       .  S
N21          C25   1.360       .  A
N21          C22   1.358       .  A
N21         C332   1.442       .  S
C22          C23   1.381       .  A
C22         C367   1.480       .  S
C23          C24   1.370       .  A
C23          H26   1.082       .  S
C24          C25   1.381       .  A
C24          H27   1.082       .  S
C25         C348   1.478       .  S
Zr28         O29   2.440       .  S
Zr28         O31   2.459       .  S
Zr28        O504   2.439       .  S
Zr28        O508   2.456       .  S
Zr28         O36   2.387       .  S
Zr28         O38   2.409       .  S
Zr28        O511   2.390       .  S
Zr28        O513   2.404       .  S
O29          H85   0.990       .  S
O29        H1041   0.991       .  S
O30        Zr502   2.441   1_545  S
O30          C50   1.285       .  A
O31          C52   1.288       .  A
O32         Zr42   2.430       .  S
O32          C51   1.285       .  A
O33         Zr41   2.426       .  S
O33          C52   1.283       .  A
O34        Zr502   2.462   1_545  S
O34          C51   1.290       .  A
O35         Zr43   2.416       .  S
O35          C50   1.280       .  A
O36         Zr41   2.395       .  S
O36        Zr517   2.380       .  S
O37         Zr42   2.391       .  S
O37         Zr43   2.381       .  S
O37        Zr502   2.390   1_545  S
O37          H72   0.965       .  S
O38         Zr41   2.403       .  S
O38       Zr1006   2.395   1_455  S
O38          H75   0.968   1_455  S
O39         Zr42   2.394       .  S
O39        Zr502   2.404   1_545  S
O39       Zr1480   2.391   1_445  S
Zr40        O539   2.442       .  S
Zr40         O59   2.421   1_455  S
Zr40         O55   2.426       .  S
Zr40        O541   2.410       .  S
Zr40         O47   2.400       .  S
Zr40         O48   2.375       .  S
Zr40        O520   2.404       .  S
Zr40        O523   2.382       .  S
Zr41         O60   2.436   1_455  S
Zr41         O53   2.434       .  S
Zr41         O54   2.441   1_554  S
Zr41         O47   2.390   1_554  S
Zr41         O48   2.383   1_554  S
Zr42         O44   2.435       .  S
Zr42         O66   2.438       .  S
Zr42         O68   2.449   1_554  S
Zr42         O46   2.386   1_554  S
Zr42         O49   2.385   1_554  S
Zr43         O69   2.435       .  S
Zr43         O70   2.437   1_554  S
Zr43         O45   2.437   1_545  S
Zr43         O46   2.398   1_554  S
Zr43        O510   2.378   1_545  S
Zr43        O521   2.388   1_544  S
O44          H81   0.991       .  S
O45          H76   0.990   1_565  S
O45         H564   0.990       .  S
O46        Zr514   2.401   1_545  S
O47        Zr517   2.394   1_556  S
O47          H73   0.966       .  S
O48       Zr1006   2.373   1_456  S
O49        Zr514   2.381   1_545  S
O49       Zr1480   2.373   1_446  S
O49          H74   0.966       .  S
C50         C319   1.476       .  S
C51         C303   1.495       .  S
C52         C284   1.482       .  S
O53          H89   0.990   1_554  S
O54          C56   1.287       .  A
O55          C56   1.282       .  A
C56         C399   1.479       .  S
O57         Zr58   2.440       .  S
O57          H86   0.990       .  S
Zr58         O61   2.436       .  S
Zr58         O62   2.440       .  S
Zr58         O63   2.430   1_554  S
Zr58        O986   2.394       .  S
Zr58       O1461   2.391       .  S
Zr58        O996   2.375   1_554  S
Zr58       O1471   2.373   1_554  S
O59        C1012   1.281       .  A
O60          H77   0.990   1_655  S
O60        H1040   0.990       .  S
O61          H78   0.990       .  S
O62          H82   0.990   1_554  S
O62          H91   0.990       .  S
O63          C64   1.284       .  A
C64         C351   1.472       .  S
C64        O1007   1.281       .  A
O65        Zr514   2.441   1_545  S
O65          H84   0.990       .  S
O65          H88   0.990       .  S
O66          H80   0.990       .  S
O66          H87   0.990       .  S
O67        Zr514   2.411   1_545  S
O67          C71   1.280       .  A
O68          C71   1.288       .  A
O69          H79   0.990       .  S
O70          H83   0.990       .  S
C71         C444   1.471       .  S
H90         O519   0.990       .  S
H92        O1008   0.990       .  S
H93         O977   0.991       .  S
Zr94        O569   2.437       .  S
Zr94         O96   2.454   1_455  S
Zr94        O100   2.455       .  S
Zr94        O571   2.463       .  S
Zr94        O103   2.389       .  S
Zr94        O105   2.407       .  S
Zr94        O576   2.385       .  S
Zr94        O578   2.417       .  S
O95        Zr568   2.438   1_545  S
O95         H151   0.990       .  S
O95         H159   0.990       .  S
O96        C1064   1.287       .  A
O97        Zr568   2.458   1_545  S
O97         C118   1.287       .  A
O98        Zr108   2.427       .  S
O98         C117   1.284       .  A
O99        Zr107   2.431       .  S
O99         C118   1.284       .  A
O100        C117   1.288       .  A
O101       Zr109   2.408       .  S
O101        C116   1.278       .  A
O102       Zr107   2.401       .  S
O102       Zr568   2.384   1_545  S
O102      Zr1531   2.383   1_445  S
O103       Zr108   2.396       .  S
O103      Zr1057   2.384   1_455  S
O103        H138   0.964   1_455  S
O104       Zr107   2.402       .  S
O104       Zr124   2.400       .  S
O104       Zr568   2.417   1_545  S
O104        H141   0.965       .  S
O105       Zr108   2.396       .  S
O105       Zr598   2.395       .  S
Zr106       O131   2.441       .  S
Zr106       O133   2.420       .  S
Zr106       O599   2.414       .  S
Zr106       O595   2.417       .  S
Zr106       O112   2.397       .  S
Zr106       O115   2.381       .  S
Zr106       O587   2.399       .  S
Zr106       O588   2.380       .  S
Zr107       O126   2.436       .  S
Zr107       O119   2.434       .  S
Zr107       O120   2.445       .  S
Zr107       O113   2.393       .  S
Zr107       O114   2.381       .  S
Zr108       O110   2.436       .  S
Zr108       O132   2.435   1_455  S
Zr108       O134   2.446       .  S
Zr108       O112   2.390       .  S
Zr108       O115   2.383       .  S
Zr109       O135   2.436       .  S
Zr109       O136   2.436       .  S
Zr109       O111   2.436       .  S
Zr109      O1524   2.382       .  S
Zr109      O1051   2.381       .  S
Zr109      O1060   2.396       .  S
Zr109      O1535   2.391       .  S
O110        H147   0.990       .  S
O111        H142   0.990       .  S
O111        H156   0.990       .  S
O112      Zr1057   2.397   1_455  S
O113       Zr580   2.397   1_545  S
O113      Zr1531   2.390   1_445  S
O113        H139   0.966       .  S
O114       Zr124   2.368       .  S
O114       Zr580   2.377   1_545  S
O115       Zr598   2.371       .  S
O115        H140   0.966       .  S
C116        C335   1.481       .  S
C116       O1044   1.287       .  A
C117        C383   1.488       .  S
C118        C431   1.487       .  S
O119        H155   0.990       .  S
O120        C122   1.288       .  A
O121       Zr580   2.414   1_545  S
O121        C122   1.280       .  A
C122        C271   1.476       .  S
O123       Zr124   2.438       .  S
O123        H152   0.990       .  S
Zr124       O127   2.436       .  S
Zr124       O128   2.440       .  S
Zr124       O129   2.440       .  S
Zr124       O579   2.398   1_545  S
Zr124       O589   2.370   1_545  S
O125       Zr580   2.416   1_545  S
O125        C130   1.280       .  A
O126        H143   0.990       .  S
O126        H158   0.990       .  S
O127        H144   0.990       .  S
O128        H148   0.990   1_545  S
O128        H631   0.990   1_545  S
O129        C130   1.287       .  A
C130        C255   1.477       .  S
O131       H1098   0.990   1_455  S
O131       H1102   0.990   1_455  S
O132        H146   0.990       .  S
O132       H1101   0.990   1_655  S
O133        C137   1.282       .  A
O134        C137   1.287       .  A
O135        H145   0.990       .  S
O136        H149   0.990       .  S
C137        C236   1.477       .  S
H150       O1079   0.990       .  S
H153       O1080   0.990       .  S
H154       O1079   0.991       .  S
H157        O602   0.990       .  S
N160        C164   1.359       .  A
N160        C161   1.357       .  A
N160        C316   1.441       .  S
C161        C162   1.381       .  A
C161        C223   1.479       .  S
C162        C163   1.372       .  A
C162        H165   1.082       .  S
C163        C164   1.382       .  A
C163        H166   1.082       .  S
C164        C252   1.481       .  S
N167        C171   1.363       .  A
N167        C168   1.359       .  A
N167        C300   1.450       .  S
C168        C169   1.380       .  A
C168        C268   1.479       .  S
C169        C170   1.369       .  A
C169        H172   1.082       .  S
C170        C171   1.382       .  A
C170        H173   1.082       .  S
C171        C204   1.486       .  S
C174        N175   1.362       .  A
C174        N179   1.361       .  A
C174        C188   1.505       .  S
N175        C176   1.364       .  A
C176        N177   1.358       .  A
C176        C220   1.504       .  S
N177        C178   1.359       .  A
C178        N179   1.358       .  A
C178        C207   1.499       .  S
N180        C184   1.362       .  A
N180        C181   1.359   1_455  A
N180        C287   1.446       .  S
C181        C182   1.380       .  A
C181        C191   1.478       .  S
C182        C183   1.370       .  A
C182        H185   1.082       .  S
C183        C184   1.381   1_655  A
C183        H186   1.082       .  S
C184        C239   1.479       .  S
C187        C188   1.412       .  A
C187       C1140   1.405       .  A
C187        H194   1.081       .  S
C188        C189   1.425       .  A
C189        C190   1.406       .  A
C189        C196   1.505       .  S
C190       C1139   1.398       .  A
C190       H1143   1.085       .  S
C191        C192   1.405   1_655  A
C191       C1138   1.399       .  A
C192       C1135   1.406   1_455  A
C192        C193   1.506       .  S
C193        H197   1.111       .  S
C193        H198   1.110       .  S
C193        H199   1.110       .  S
H195       C1138   1.085       .  S
C196        H200   1.108       .  S
C196        H201   1.110       .  S
C196        H202   1.111       .  S
C203        C204   1.404       .  A
C203        C208   1.406       .  A
C203        H210   1.084       .  S
C204       C1153   1.412   1_455  A
C205        C206   1.405       .  A
C205       C1152   1.412       .  A
C205        C212   1.506       .  S
C206        C207   1.409       .  A
C206        H211   1.080       .  S
C207       C1156   1.420       .  A
C208       C1155   1.419   1_455  A
C208        C209   1.507       .  S
C209        H213   1.111       .  S
C209        H214   1.107       .  S
C209       H1163   1.110       .  S
C212        H217   1.107       .  S
C212        H218   1.111       .  S
C212       H1164   1.108       .  S
H215       C1157   1.110       .  S
H216       C1160   1.108       .  S
C219        C220   1.409       .  A
C219        C224   1.405       .  A
C219        H226   1.081       .  S
C220        C221   1.423       .  A
C221        C222   1.404       .  A
C221        C228   1.506       .  S
C222        C223   1.399       .  A
C222        H227   1.085       .  S
C223        C224   1.410       .  A
C224        C225   1.505       .  S
C225        H229   1.111       .  S
C225        H230   1.110       .  S
C225        H231   1.109       .  S
C228        H232   1.110       .  S
C228        H233   1.107       .  S
C228        H234   1.111       .  S
C235        C236   1.403       .  A
C235        C240   1.405       .  A
C235       H1190   1.084   1_455  S
C236        C237   1.412       .  A
C237        C238   1.403       .  A
C237        C244   1.507       .  S
C238        C239   1.404       .  A
C238        H243   1.084       .  S
C239        C240   1.412       .  A
C240       C1189   1.506   1_455  S
C241       C1188   1.506       .  S
C241        H245   1.111       .  S
C241        H246   1.110       .  S
C241        H247   1.105       .  S
H242       C1183   1.084       .  S
C244        H248   1.108       .  S
C244        H249   1.110       .  S
C244        H250   1.111       .  S
C251        C252   1.404       .  A
C251        C256   1.409       .  A
C251        H258   1.084       .  S
C252        C253   1.416       .  A
C253        C254   1.397       .  A
C253        C260   1.509       .  S
C254        C255   1.399       .  A
C254        H259   1.085       .  S
C255        C256   1.416       .  A
C256        C257   1.507   1_545  S
C257        H261   1.111       .  S
C257        H262   1.110       .  S
C257        H737   1.110       .  S
C260        H264   1.108       .  S
C260        H265   1.110       .  S
C260        H266   1.111       .  S
H263        C731   1.110       .  S
C267        C268   1.401       .  A
C267        C272   1.408       .  A
C267        H274   1.084       .  S
C268        C269   1.416       .  A
C269        C270   1.399       .  A
C269       C1224   1.508   1_455  S
C270        C271   1.398       .  A
C270       H1223   1.085       .  S
C271        C272   1.417       .  A
C272        C273   1.507       .  S
C273        H277   1.111       .  S
C273        H278   1.109       .  S
C273        H279   1.111       .  S
H275       C1218   1.085       .  S
C276       C1217   1.509       .  S
C276        H280   1.109       .  S
C276        H281   1.108       .  S
C276        H282   1.111       .  S
C283        C284   1.403       .  A
C283        C288   1.408       .  A
C283        H290   1.085       .  S
C284        C285   1.414   1_455  A
C285        C286   1.403       .  A
C285       C1240   1.507       .  S
C286        C287   1.402   1_655  A
C286       H1239   1.082       .  S
C287        C288   1.418       .  A
C288        C289   1.505       .  S
C289        H293   1.110       .  S
C289        H294   1.107       .  S
C289        H295   1.111       .  S
H291       C1234   1.082       .  S
C292       C1233   1.507       .  S
C292        H297   1.110       .  S
C292        H298   1.111       .  S
C292       H1244   1.108       .  S
H296       C1240   1.108       .  S
C299        C300   1.407       .  A
C299        C304   1.415       .  A
C299       H1254   1.083       .  S
C300        C301   1.415       .  A
C301        C302   1.402       .  A
C301        C308   1.506       .  S
C302        C303   1.403       .  A
C302        H307   1.084       .  S
C303        C304   1.418       .  A
C304       C1253   1.504       .  S
C305       C1252   1.504       .  S
C305        H309   1.111       .  S
C305        H310   1.108       .  S
C305        H311   1.110       .  S
H306       C1247   1.083       .  S
C308        H312   1.110       .  S
C308        H313   1.104       .  S
C308        H314   1.111       .  S
C315        C316   1.403       .  A
C315        C320   1.404       .  A
C315        H322   1.084       .  S
C316        C317   1.414       .  A
C317        C318   1.402       .  A
C317        C324   1.505       .  S
C318        C319   1.402       .  A
C318        H323   1.085       .  S
C319        C320   1.414       .  A
C320        C321   1.507       .  S
C321        H325   1.111       .  S
C321        H326   1.109       .  S
C321        H327   1.110   1_545  S
C324        H328   1.106       .  S
C324        H329   1.110       .  S
C324        H330   1.110       .  S
C331        C332   1.402       .  A
C331        C336   1.403       .  A
C331        H338   1.083       .  S
C332        C333   1.414       .  A
C333        C334   1.406       .  A
C333        C340   1.504       .  S
C334        C335   1.404       .  A
C334        H339   1.085       .  S
C335        C336   1.416       .  A
C336        C337   1.507       .  S
C337        H341   1.111       .  S
C337        H342   1.108       .  S
C337        H343   1.110       .  S
C340        H344   1.108       .  S
C340        H345   1.111       .  S
C340        H346   1.111       .  S
C347        C348   1.402       .  A
C347        C352   1.399       .  A
C347        H354   1.084       .  S
C348        C349   1.413       .  A
C349        C350   1.406       .  A
C349        C356   1.505       .  S
C350        C351   1.403       .  A
C350        H355   1.084       .  S
C351        C352   1.411       .  A
C352        C353   1.507       .  S
C353        H357   1.111       .  S
C353        H358   1.108       .  S
C353        H359   1.109       .  S
C356        H360   1.110       .  S
C356        H361   1.106       .  S
C356        H362   1.111       .  S
C363        C364   1.411       .  A
C363        C368   1.399       .  A
C363        H370   1.082       .  S
C364        C365   1.423       .  A
C365        C366   1.412       .  A
C365        C372   1.505       .  S
C366        C367   1.402       .  A
C366        H371   1.084       .  S
C367        C368   1.409       .  A
C368        C369   1.508       .  S
C369        H373   1.110       .  S
C369        H374   1.109       .  S
C369        H375   1.111       .  S
C372        H376   1.110       .  S
C372        H377   1.107       .  S
C372        H378   1.111       .  S
C379        C380   1.402       .  A
C379        C384   1.411       .  A
C379        H386   1.083       .  S
C380        C381   1.413       .  A
C381        C382   1.401       .  A
C381        C388   1.507       .  S
C382        C383   1.403       .  A
C382        H387   1.085       .  S
C383        C384   1.418       .  A
C384        C385   1.504       .  S
C385        H389   1.111       .  S
C385        H390   1.107       .  S
C385        H391   1.110       .  S
C388        H392   1.111   1_455  S
C388        H394   1.110       .  S
C388       H1341   1.107       .  S
H393       C1336   1.106       .  S
C395        C396   1.404       .  A
C395        C400   1.410       .  A
C395        H402   1.084       .  S
C396        C397   1.417       .  A
C397        C398   1.397       .  A
C397        C404   1.509       .  S
C398        C399   1.399       .  A
C398        H403   1.085       .  S
C399        C400   1.417       .  A
C400        C401   1.505       .  S
C401        H405   1.111   1_455  S
C401        H406   1.109       .  S
C401        H407   1.109   1_455  S
C404        H408   1.106       .  S
C404        H409   1.110       .  S
C404        H410   1.111       .  S
C411        C412   1.408       .  A
C411        C416   1.401       .  A
C411        H418   1.081       .  S
C412        C413   1.418       .  A
C413        C414   1.407       .  A
C413        C420   1.505       .  S
C414        C415   1.402       .  A
C414        H419   1.084       .  S
C415        C416   1.411       .  A
C416        C417   1.508       .  S
C417        H421   1.111       .  S
C417        H422   1.109       .  S
C417        H423   1.108       .  S
C420        H424   1.109       .  S
C420        H425   1.109       .  S
C420        H426   1.110       .  S
C427        C428   1.402       .  A
C427        C432   1.407       .  A
C427        H434   1.084       .  S
C428        C429   1.415       .  A
C429        C430   1.404       .  A
C429        C436   1.506       .  S
C430        C431   1.403       .  A
C430        H435   1.085       .  S
C431        C432   1.417       .  A
C432        C433   1.504       .  S
C433        H437   1.111       .  S
C433        H438   1.110       .  S
C433        H439   1.106       .  S
C436        H440   1.110       .  S
C436        H441   1.106       .  S
C436        H442   1.111       .  S
C443        C444   1.404       .  A
C443        C448   1.406       .  A
C443        H450   1.084       .  S
C444        C445   1.410       .  A
C445        C446   1.401       .  A
C445        C452   1.507       .  S
C446        C447   1.403       .  A
C446        H451   1.084       .  S
C447        C448   1.411       .  A
C448        C449   1.505       .  S
C449        H454   1.108       .  S
C449       H1401   1.111   1_455  S
C449       H1403   1.110       .  S
C452        H456   1.111       .  S
C452        H457   1.110       .  S
C452        H458   1.111       .  S
H453       C1397   1.111       .  S
H455       C1397   1.110       .  S
C459        C460   1.397       .  A
C459        C464   1.405       .  A
C459        H466   1.084       .  S
C460        C461   1.409       .  A
C461        C462   1.407       .  A
C461        C468   1.506       .  S
C462        C463   1.411       .  A
C462        H467   1.081       .  S
C463        C464   1.428       .  A
C464        C465   1.506       .  S
C465        H469   1.111       .  S
C465        H470   1.110       .  S
C465        H471   1.110       .  S
C468        H472   1.109       .  S
C468        H473   1.110       .  S
C468        H474   1.111       .  S
N475        C479   1.359       .  A
N475        C476   1.361       .  A
N475        C902   1.447       .  S
C476        C477   1.381       .  A
C476        C934   1.478       .  S
C477        C478   1.369       .  A
C477        H480   1.082       .  S
C478        C479   1.380       .  A
C478        H481   1.082       .  S
C479        C921   1.474       .  S
N482        C486   1.356       .  A
N482        C483   1.356       .  A
N482        C854   1.440       .  S
C483        C484   1.383       .  A
C483        C870   1.481       .  S
C484        C485   1.373       .  A
C484        H487   1.082       .  S
C485        C486   1.381       .  A
C485        H488   1.082       .  S
C486        C889   1.477       .  S
C489        N490   1.367       .  A
C489        N494   1.359       .  A
C489        C937   1.508       .  S
N490        C491   1.364       .  A
C491        N492   1.360       .  A
C491        C838   1.505       .  S
N492        C493   1.356       .  A
C493        N494   1.358       .  A
C493        C886   1.490       .  S
N495        C499   1.360       .  A
N495        C496   1.359       .  A
N495        C806   1.443       .  S
C496        C497   1.381       .  A
C496        C841   1.479       .  S
C497        C498   1.370       .  A
C497        H500   1.082       .  S
C498        C499   1.381       .  A
C498        H501   1.082       .  S
C499        C822   1.477       .  S
Zr502       O503   2.440       .  S
Zr502       O505   2.458       .  S
Zr502       O510   2.388       .  S
Zr502       O512   2.411       .  S
O503        H559   0.990       .  S
O503       H1515   0.990       .  S
O504        C524   1.285       .  A
O505        C526   1.288       .  A
O506       Zr516   2.430       .  S
O506        C525   1.285       .  A
O507       Zr515   2.425       .  S
O507        C526   1.283       .  A
O508        C525   1.289       .  A
O509       Zr517   2.423       .  S
O509        C524   1.282       .  A
O510       Zr515   2.399       .  S
O511       Zr516   2.387       .  S
O511       Zr517   2.377       .  S
O511        H546   0.965       .  S
O512       Zr515   2.404       .  S
O512      Zr1480   2.393   1_455  S
O512        H549   0.967   1_455  S
O513       Zr516   2.394       .  S
O513      Zr1006   2.392   1_455  S
Zr514       O533   2.420   1_455  S
Zr514       O529   2.423       .  S
Zr514       O521   2.396       .  S
Zr514       O522   2.376       .  S
Zr515       O534   2.435   1_455  S
Zr515       O527   2.436       .  S
Zr515       O528   2.444   1_554  S
Zr515       O521   2.387   1_554  S
Zr515       O522   2.380   1_554  S
Zr516       O518   2.434       .  S
Zr516       O540   2.439       .  S
Zr516       O542   2.445   1_554  S
Zr516       O520   2.386   1_554  S
Zr516       O523   2.389   1_554  S
Zr517       O543   2.435       .  S
Zr517       O544   2.436   1_554  S
Zr517       O519   2.436       .  S
Zr517       O520   2.397   1_554  S
O518        H555   0.990       .  S
O519        H550   0.990       .  S
O521        H547   0.965       .  S
O522      Zr1480   2.374   1_456  S
O523      Zr1006   2.372   1_456  S
O523        H548   0.966       .  S
C524        C793   1.479       .  S
C525        C777   1.492       .  S
C526        C758   1.479       .  S
O527        H563   0.990       .  S
O528        C530   1.288       .  A
O529        C530   1.282       .  A
C530        C873   1.479       .  S
O531       Zr532   2.440       .  S
O531        H560   0.990       .  S
Zr532       O535   2.437       .  S
Zr532       O536   2.440       .  S
Zr532       O537   2.430   1_554  S
Zr532      O1460   2.397       .  S
Zr532       O987   2.389   1_565  S
Zr532      O1470   2.375   1_554  S
Zr532       O997   2.373   1_564  S
O533       C1486   1.282       .  A
O534        H551   0.990   1_655  S
O534       H1514   0.990       .  S
O535        H552   0.990       .  S
O536        H556   0.990   1_554  S
O536        H565   0.990   1_565  S
O537        C538   1.284       .  A
C538        C825   1.472       .  S
C538       O1481   1.281       .  A
O539        H558   0.990       .  S
O539        H562   0.990       .  S
O540        H554   0.989       .  S
O540        H561   0.990       .  S
O541        C545   1.279       .  A
O542        C545   1.287       .  A
O543        H553   0.990       .  S
O544        H557   0.990       .  S
C545        C918   1.470       .  S
H566       O1482   0.990       .  S
H567       O1451   0.990       .  S
Zr568       O570   2.463   1_455  S
Zr568       O574   2.451       .  S
Zr568       O577   2.387       .  S
Zr568       O579   2.408       .  S
O569        H625   0.990       .  S
O569        H633   0.990       .  S
O570       C1538   1.289       .  A
O571        C592   1.288       .  A
O572       Zr582   2.425       .  S
O572        C591   1.284       .  A
O573       Zr581   2.439       .  S
O573        C592   1.285       .  A
O574        C591   1.287       .  A
O575       Zr583   2.407       .  S
O575        C590   1.278       .  A
O576       Zr581   2.400       .  S
O576      Zr1057   2.381   1_455  S
O577       Zr582   2.394       .  S
O577      Zr1531   2.382   1_455  S
O577        H612   0.965   1_455  S
O578       Zr581   2.407       .  S
O578       Zr598   2.400       .  S
O578        H615   0.965       .  S
O579       Zr582   2.393       .  S
Zr580       O605   2.441       .  S
Zr580       O607   2.413       .  S
Zr580       O586   2.395       .  S
Zr580       O589   2.380       .  S
Zr581       O600   2.437       .  S
Zr581       O593   2.436       .  S
Zr581       O594   2.450       .  S
Zr581       O587   2.394       .  S
Zr581       O588   2.384       .  S
Zr582       O584   2.435       .  S
Zr582       O606   2.436   1_455  S
Zr582       O608   2.442       .  S
Zr582       O586   2.389       .  S
Zr582       O589   2.382       .  S
Zr583       O609   2.436       .  S
Zr583       O610   2.437       .  S
Zr583       O585   2.437       .  S
Zr583      O1050   2.382   1_565  S
Zr583      O1525   2.380       .  S
Zr583      O1534   2.395       .  S
Zr583      O1061   2.389   1_565  S
O584        H621   0.990       .  S
O585        H616   0.990       .  S
O585        H630   0.990       .  S
O586      Zr1531   2.393   1_455  S
O587      Zr1057   2.390   1_455  S
O587        H613   0.966       .  S
O588       Zr598   2.370       .  S
O589        H614   0.965       .  S
C590        C809   1.481       .  S
C590       O1518   1.288       .  A
C591        C857   1.486       .  S
C592        C905   1.493       .  S
O593        H629   0.990       .  S
O594        C596   1.289       .  A
O595        C596   1.281       .  A
C596        C745   1.480       .  S
O597       Zr598   2.439       .  S
O597        H626   0.990       .  S
Zr598       O601   2.437       .  S
Zr598       O602   2.439       .  S
Zr598       O603   2.435       .  S
O599        C604   1.280       .  A
O600        H617   0.991       .  S
O600        H632   0.990       .  S
O601        H618   0.990       .  S
O602        H622   0.990       .  S
O603        C604   1.286       .  A
C604        C729   1.475       .  S
O605       H1572   0.990   1_455  S
O605       H1576   0.990   1_455  S
O606        H620   0.990       .  S
O606       H1575   0.990   1_655  S
O607        C611   1.281       .  A
O608        C611   1.287       .  A
O609        H619   0.990       .  S
O610        H623   0.990       .  S
C611        C710   1.472       .  S
H624       O1553   0.990       .  S
H627       O1554   0.990       .  S
H628       O1553   0.990       .  S
N634        C638   1.359       .  A
N634        C635   1.358       .  A
N634        C790   1.442       .  S
C635        C636   1.380       .  A
C635        C697   1.479       .  S
C636        C637   1.371       .  A
C636        H639   1.082       .  S
C637        C638   1.383       .  A
C637        H640   1.082       .  S
C638        C726   1.480       .  S
N641        C645   1.363       .  A
N641        C642   1.360       .  A
N641        C774   1.448       .  S
C642        C643   1.381       .  A
C642        C742   1.482       .  S
C643        C644   1.369       .  A
C643        H646   1.082       .  S
C644        C645   1.382       .  A
C644        H647   1.082       .  S
C645        C678   1.488       .  S
C648        N649   1.361       .  A
C648        N653   1.360       .  A
C648        C662   1.503       .  S
N649        C650   1.363       .  A
C650        N651   1.360       .  A
C650        C694   1.504       .  S
N651        C652   1.360       .  A
C652        N653   1.357       .  A
C652        C681   1.497       .  S
N654        C658   1.360       .  A
N654        C655   1.357   1_455  A
N654        C761   1.445       .  S
C655        C656   1.380       .  A
C655        C665   1.474       .  S
C656        C657   1.370       .  A
C656        H659   1.082       .  S
C657        C658   1.381   1_655  A
C657        H660   1.082       .  S
C658        C713   1.475       .  S
C661        C662   1.413       .  A
C661       C1614   1.405       .  A
C661        H668   1.081       .  S
C662        C663   1.425       .  A
C663        C664   1.404       .  A
C663        C670   1.505       .  S
C664       C1613   1.397       .  A
C664       H1617   1.085       .  S
C665       C1612   1.398       .  A
C665        C666   1.404   1_655  A
C666       C1609   1.404   1_455  A
C666        C667   1.507       .  S
C667        H671   1.111       .  S
C667        H672   1.111       .  S
C667        H673   1.110       .  S
H669       C1612   1.085       .  S
C670        H674   1.109       .  S
C670        H675   1.110       .  S
C670        H676   1.111       .  S
C677        C678   1.404       .  A
C677        C682   1.406       .  A
C677        H684   1.084       .  S
C678       C1627   1.413   1_455  A
C679       C1626   1.413       .  A
C679        C680   1.404       .  A
C679        C686   1.504       .  S
C680        C681   1.407       .  A
C680        H685   1.081       .  S
C681       C1630   1.420       .  A
C682       C1629   1.420   1_455  A
C682        C683   1.507       .  S
C683        H687   1.111       .  S
C683        H688   1.106       .  S
C683       H1637   1.110       .  S
C686       H1638   1.107       .  S
C686        H691   1.106       .  S
C686        H692   1.111       .  S
H689       C1631   1.110       .  S
H690       C1634   1.107       .  S
C693        C694   1.410       .  A
C693        C698   1.405       .  A
C693        H700   1.081       .  S
C694        C695   1.422       .  A
C695        C696   1.405       .  A
C695        C702   1.506       .  S
C696        C697   1.400       .  A
C696        H701   1.085       .  S
C697        C698   1.409       .  A
C698        C699   1.506       .  S
C699        H703   1.111       .  S
C699        H704   1.110       .  S
C699        H705   1.109       .  S
C702        H706   1.110       .  S
C702        H707   1.107       .  S
C702        H708   1.111       .  S
C709        C710   1.402       .  A
C709        C714   1.403       .  A
C709       H1664   1.084   1_455  S
C710        C711   1.411       .  A
C711        C712   1.402       .  A
C711        C718   1.507       .  S
C712        C713   1.403       .  A
C712        H717   1.084       .  S
C713        C714   1.412       .  A
C714       C1663   1.506   1_455  S
C715       C1662   1.506       .  S
C715        H719   1.111       .  S
C715        H720   1.110       .  S
C715        H721   1.104       .  S
H716       C1657   1.084       .  S
C718        H722   1.108       .  S
C718        H723   1.110       .  S
C718        H724   1.111       .  S
C725        C726   1.404       .  A
C725        C730   1.408       .  A
C725        H732   1.084       .  S
C726        C727   1.416       .  A
C727        C728   1.396       .  A
C727        C734   1.509       .  S
C728        C729   1.399       .  A
C728        H733   1.085       .  S
C729        C730   1.416       .  A
C730        C731   1.507       .  S
C731        H735   1.111       .  S
C731        H736   1.110       .  S
C734        H738   1.107       .  S
C734        H739   1.110       .  S
C734        H740   1.111       .  S
C741        C742   1.402       .  A
C741        C746   1.410       .  A
C741        H748   1.084       .  S
C742        C743   1.417       .  A
C743        C744   1.400       .  A
C743       C1698   1.509       .  S
C744        C745   1.399       .  A
C744       H1697   1.085       .  S
C745        C746   1.418       .  A
C746        C747   1.507       .  S
C747        H751   1.111       .  S
C747        H752   1.109       .  S
C747        H753   1.111       .  S
H749       C1692   1.085       .  S
C750       C1691   1.508       .  S
C750        H754   1.107       .  S
C750        H755   1.108       .  S
C750        H756   1.111       .  S
C757        C758   1.402       .  A
C757        C762   1.407       .  A
C757        H764   1.085       .  S
C758        C759   1.414   1_455  A
C759        C760   1.403       .  A
C759       C1714   1.506       .  S
C760        C761   1.402   1_655  A
C760       H1713   1.082       .  S
C761        C762   1.417       .  A
C762        C763   1.505       .  S
C763        H767   1.111       .  S
C763        H768   1.107       .  S
C763        H769   1.110       .  S
H765       C1708   1.083       .  S
C766       C1707   1.506       .  S
C766       H1718   1.108       .  S
C766        H771   1.110       .  S
C766        H772   1.111       .  S
H770       C1714   1.108       .  S
C773        C774   1.405       .  A
C773        C778   1.414       .  A
C773       H1728   1.084       .  S
C774        C775   1.415       .  A
C775        C776   1.402       .  A
C775        C782   1.506       .  S
C776        C777   1.403       .  A
C776        H781   1.084       .  S
C777        C778   1.418       .  A
C778       C1727   1.504       .  S
C779       C1726   1.504       .  S
C779        H783   1.111       .  S
C779        H784   1.109       .  S
C779        H785   1.110       .  S
H780       C1721   1.083       .  S
C782        H786   1.110       .  S
C782        H787   1.105       .  S
C782        H788   1.111       .  S
C789        C790   1.403       .  A
C789        C794   1.403       .  A
C789        H796   1.084       .  S
C790        C791   1.415       .  A
C791        C792   1.404       .  A
C791        C798   1.505       .  S
C792        C793   1.403       .  A
C792        H797   1.085       .  S
C793        C794   1.414       .  A
C794        C795   1.507       .  S
C795        H799   1.111       .  S
C795        H800   1.108       .  S
C795        H801   1.110       .  S
C798        H802   1.106       .  S
C798        H803   1.111       .  S
C798        H804   1.110       .  S
C805        C806   1.401       .  A
C805        C810   1.402       .  A
C805        H812   1.082       .  S
C806        C807   1.416       .  A
C807        C808   1.406       .  A
C807        C814   1.504       .  S
C808        C809   1.403       .  A
C808        H813   1.085       .  S
C809        C810   1.415       .  A
C810        C811   1.507       .  S
C811        H815   1.111       .  S
C811        H816   1.107       .  S
C811        H817   1.110       .  S
C814        H818   1.108       .  S
C814        H819   1.111       .  S
C814        H820   1.110       .  S
C821        C822   1.402       .  A
C821        C826   1.399       .  A
C821        H828   1.084       .  S
C822        C823   1.413       .  A
C823        C824   1.406       .  A
C823        C830   1.505       .  S
C824        C825   1.403       .  A
C824        H829   1.084       .  S
C825        C826   1.411       .  A
C826        C827   1.508       .  S
C827        H831   1.111       .  S
C827        H832   1.108       .  S
C827        H833   1.109       .  S
C830        H834   1.110       .  S
C830        H835   1.105       .  S
C830        H836   1.111       .  S
C837        C838   1.412       .  A
C837        C842   1.399       .  A
C837        H844   1.083       .  S
C838        C839   1.423       .  A
C839        C840   1.411       .  A
C839        C846   1.505       .  S
C840        C841   1.401       .  A
C840        H845   1.084       .  S
C841        C842   1.409       .  A
C842        C843   1.508       .  S
C843        H847   1.110       .  S
C843        H848   1.109       .  S
C843        H849   1.111       .  S
C846        H850   1.110       .  S
C846        H851   1.106       .  S
C846        H852   1.111       .  S
C853        C854   1.403       .  A
C853        C858   1.411       .  A
C853        H860   1.083       .  S
C854        C855   1.414       .  A
C855        C856   1.399       .  A
C855        C862   1.507       .  S
C856        C857   1.402       .  A
C856        H861   1.085       .  S
C857        C858   1.418       .  A
C858        C859   1.504       .  S
C859        H863   1.111       .  S
C859        H864   1.107       .  S
C859        H865   1.110       .  S
C862        H866   1.111   1_455  S
C862       H1815   1.106       .  S
C862        H868   1.110       .  S
H867       C1810   1.106       .  S
C869        C870   1.403       .  A
C869        C874   1.410       .  A
C869        H876   1.084       .  S
C870        C871   1.417       .  A
C871        C872   1.397       .  A
C871        C878   1.509       .  S
C872        C873   1.399       .  A
C872        H877   1.085       .  S
C873        C874   1.417       .  A
C874        C875   1.506       .  S
C875        H879   1.111   1_455  S
C875        H880   1.109       .  S
C875        H881   1.109   1_455  S
C878        H882   1.105       .  S
C878        H883   1.110       .  S
C878        H884   1.111       .  S
C885        C886   1.407       .  A
C885        C890   1.401       .  A
C885        H892   1.083       .  S
C886        C887   1.417       .  A
C887        C888   1.407       .  A
C887        C894   1.505       .  S
C888        C889   1.401       .  A
C888        H893   1.084       .  S
C889        C890   1.411       .  A
C890        C891   1.508       .  S
C891        H895   1.111       .  S
C891        H896   1.109       .  S
C891        H897   1.109       .  S
C894        H898   1.109       .  S
C894        H899   1.109       .  S
C894        H900   1.111       .  S
C901        C902   1.403       .  A
C901        C906   1.409       .  A
C901        H908   1.083       .  S
C902        C903   1.416       .  A
C903        C904   1.406       .  A
C903        C910   1.506       .  S
C904        C905   1.405       .  A
C904        H909   1.085       .  S
C905        C906   1.418       .  A
C906        C907   1.504       .  S
C907        H911   1.111       .  S
C907        H912   1.110       .  S
C907        H913   1.106       .  S
C910        H914   1.110       .  S
C910        H915   1.106       .  S
C910        H916   1.111       .  S
C917        C918   1.404       .  A
C917        C922   1.405       .  A
C917        H924   1.084       .  S
C918        C919   1.410       .  A
C919        C920   1.400       .  A
C919        C926   1.507       .  S
C920        C921   1.403       .  A
C920        H925   1.085       .  S
C921        C922   1.410       .  A
C922        C923   1.505       .  S
C923       H1875   1.111   1_455  S
C923        H928   1.108       .  S
C923       H1877   1.110       .  S
C926        H930   1.111       .  S
C926        H931   1.109       .  S
C926        H932   1.111       .  S
H927       C1871   1.111       .  S
H929       C1871   1.110       .  S
C933        C934   1.398       .  A
C933        C938   1.405       .  A
C933        H940   1.084       .  S
C934        C935   1.409       .  A
C935        C936   1.407       .  A
C935        C942   1.506       .  S
C936        C937   1.411       .  A
C936        H941   1.081       .  S
C937        C938   1.428       .  A
C938        C939   1.507       .  S
C939        H943   1.111       .  S
C939        H944   1.110       .  S
C939        H945   1.109       .  S
C942        H946   1.109       .  S
C942        H947   1.110       .  S
C942        H948   1.111       .  S
N949        C953   1.359       .  A
N949        C950   1.361       .  A
N949       C1376   1.445       .  S
C950        C951   1.381       .  A
C950       C1408   1.479       .  S
C951        C952   1.368       .  A
C951        H954   1.082       .  S
C952        C953   1.379       .  A
C952        H955   1.082       .  S
C953       C1395   1.474       .  S
N956        C960   1.356       .  A
N956        C957   1.356       .  A
N956       C1328   1.440       .  S
C957        C958   1.383       .  A
C957       C1344   1.481       .  S
C958        C959   1.374       .  A
C958        H961   1.082       .  S
C959        C960   1.381       .  A
C959        H962   1.082       .  S
C960       C1363   1.478       .  S
C963        N964   1.365       .  A
C963        N968   1.359       .  A
C963       C1411   1.507       .  S
N964        C965   1.362       .  A
C965        N966   1.361       .  A
C965       C1312   1.504       .  S
N966        C967   1.358       .  A
C967        N968   1.359       .  A
C967       C1360   1.493       .  S
N969        C973   1.359       .  A
N969        C970   1.358       .  A
N969       C1280   1.442       .  S
C970        C971   1.381       .  A
C970       C1315   1.480       .  S
C971        C972   1.371       .  A
C971        H974   1.082       .  S
C972        C973   1.381       .  A
C972        H975   1.082       .  S
C973       C1296   1.478       .  S
Zr976       O977   2.440       .  S
Zr976      O1452   2.439       .  S
Zr976       O979   2.457       .  S
Zr976      O1456   2.457       .  S
Zr976       O984   2.388       .  S
Zr976      O1459   2.389       .  S
Zr976       O986   2.410       .  S
Zr976      O1461   2.403       .  S
O977       H1033   0.990       .  S
O978      Zr1450   2.440   1_545  S
O978        C998   1.285       .  A
O979       C1000   1.287       .  A
O980       Zr990   2.429       .  S
O980        C999   1.285       .  A
O981       Zr989   2.430       .  S
O981       C1000   1.284       .  A
O982      Zr1450   2.456   1_545  S
O982        C999   1.289       .  A
O983       Zr991   2.423       .  S
O983        C998   1.282       .  A
O984       Zr989   2.399       .  S
O984      Zr1465   2.379       .  S
O985      Zr1450   2.388   1_545  S
O985       Zr990   2.389       .  S
O985       Zr991   2.377       .  S
O985       H1020   0.965       .  S
O986       Zr989   2.404       .  S
O986       H1023   0.967       .  S
O987      Zr1450   2.402   1_545  S
O987       Zr990   2.393       .  S
Zr988      O1487   2.441       .  S
Zr988      O1007   2.420       .  S
Zr988      O1489   2.411       .  S
Zr988      O1003   2.423       .  S
Zr988      O1468   2.401       .  S
Zr988       O995   2.398       .  S
Zr988       O996   2.377       .  S
Zr988      O1471   2.382       .  S
Zr989      O1008   2.435       .  S
Zr989      O1001   2.435       .  S
Zr989      O1002   2.447   1_554  S
Zr989       O995   2.390   1_554  S
Zr989       O996   2.382   1_554  S
Zr990       O992   2.435       .  S
Zr990      O1014   2.437       .  S
Zr990      O1016   2.442   1_554  S
Zr990       O994   2.385   1_554  S
Zr990       O997   2.387   1_554  S
Zr991      O1017   2.437       .  S
Zr991      O1018   2.435   1_554  S
Zr991       O993   2.437   1_545  S
Zr991      O1458   2.378   1_545  S
Zr991       O994   2.398   1_554  S
Zr991      O1469   2.395   1_544  S
O992       H1029   0.990       .  S
O993       H1024   0.990   1_565  S
O993       H1512   0.990       .  S
O994      Zr1462   2.401   1_545  S
O995      Zr1465   2.391   1_556  S
O995       H1021   0.966       .  S
O997      Zr1462   2.380   1_545  S
O997       H1022   0.966       .  S
C998       C1267   1.478       .  S
C999       C1251   1.492       .  S
C1000      C1232   1.481       .  S
O1001      H1037   0.990       .  S
O1002      C1004   1.288       .  A
O1003      C1004   1.282       .  A
C1004      C1347   1.478       .  S
O1005     Zr1006   2.439       .  S
O1005      H1034   0.990       .  S
Zr1006     O1009   2.436       .  S
Zr1006     O1010   2.440       .  S
Zr1006     O1011   2.431   1_554  S
O1008      H1025   0.990       .  S
O1009      H1026   0.990       .  S
O1010      H1030   0.990   1_554  S
O1010      H1039   0.990       .  S
O1011      C1012   1.284       .  A
C1012      C1299   1.472       .  S
O1013     Zr1462   2.442   1_545  S
O1013      H1032   0.990       .  S
O1013      H1036   0.990   1_545  S
O1014      H1028   0.990       .  S
O1014      H1035   0.990       .  S
O1015     Zr1462   2.411   1_545  S
O1015      C1019   1.280       .  A
O1016      C1019   1.286       .  A
O1017      H1027   0.990       .  S
O1018      H1031   0.990       .  S
C1019      C1392   1.468       .  S
H1038      O1467   0.990       .  S
Zr1042     O1517   2.438       .  S
Zr1042     O1044   2.455       .  S
Zr1042     O1519   2.462       .  S
Zr1042     O1048   2.452       .  S
Zr1042     O1524   2.385       .  S
Zr1042     O1051   2.388       .  S
Zr1042     O1526   2.415       .  S
Zr1042     O1053   2.408       .  S
O1043     Zr1516   2.437   1_545  S
O1043      H1099   0.990       .  S
O1043      H1107   0.990       .  S
O1045     Zr1516   2.457   1_545  S
O1045      C1066   1.287       .  A
O1046     Zr1056   2.422       .  S
O1046      C1065   1.284       .  A
O1047     Zr1055   2.437       .  S
O1047      C1066   1.285       .  A
O1048      C1065   1.287       .  A
O1049     Zr1057   2.408       .  S
O1049      C1064   1.278       .  A
O1050     Zr1516   2.386   1_545  S
O1050     Zr1055   2.401       .  S
O1051     Zr1056   2.395       .  S
O1051      H1086   0.965       .  S
O1052     Zr1516   2.418   1_545  S
O1052     Zr1055   2.404       .  S
O1052     Zr1072   2.398       .  S
O1052      H1089   0.965       .  S
O1053     Zr1056   2.396       .  S
O1053     Zr1546   2.397       .  S
Zr1054     O1079   2.441       .  S
Zr1054     O1547   2.413       .  S
Zr1054     O1081   2.421       .  S
Zr1054     O1543   2.414       .  S
Zr1054     O1060   2.396       .  S
Zr1054     O1535   2.400       .  S
Zr1054     O1536   2.378       .  S
Zr1054     O1063   2.379       .  S
Zr1055     O1074   2.437       .  S
Zr1055     O1067   2.435       .  S
Zr1055     O1068   2.449       .  S
Zr1055     O1061   2.395       .  S
Zr1055     O1062   2.383       .  S
Zr1056     O1058   2.435       .  S
Zr1056     O1080   2.436       .  S
Zr1056     O1082   2.440       .  S
Zr1056     O1060   2.391       .  S
Zr1056     O1063   2.381       .  S
Zr1057     O1083   2.438       .  S
Zr1057     O1084   2.436       .  S
Zr1057     O1059   2.436       .  S
O1058      H1095   0.990       .  S
O1059      H1090   0.990       .  S
O1059      H1104   0.990       .  S
O1061     Zr1528   2.399   1_545  S
O1061      H1087   0.966       .  S
O1062     Zr1528   2.379   1_545  S
O1062     Zr1072   2.368       .  S
O1063     Zr1546   2.371       .  S
O1063      H1088   0.966       .  S
C1064      C1283   1.480       .  S
C1065      C1331   1.486       .  S
C1066      C1379   1.489       .  S
O1067      H1103   0.990       .  S
O1068      C1070   1.289       .  A
O1069     Zr1528   2.410   1_545  S
O1069      C1070   1.280       .  A
C1070      C1219   1.476       .  S
O1071     Zr1072   2.438       .  S
O1071      H1100   0.990       .  S
Zr1072     O1075   2.437       .  S
Zr1072     O1076   2.439       .  S
Zr1072     O1077   2.432       .  S
Zr1072     O1527   2.398   1_545  S
Zr1072     O1537   2.371   1_545  S
O1073     Zr1528   2.417   1_545  S
O1073      C1078   1.281       .  A
O1074      H1091   0.990       .  S
O1074      H1106   0.990       .  S
O1075      H1092   0.990       .  S
O1076      H1096   0.990   1_545  S
O1076      H1579   0.990   1_545  S
O1077      C1078   1.285       .  A
C1078      C1203   1.474       .  S
O1080      H1094   0.990       .  S
O1081      C1085   1.282       .  A
O1082      C1085   1.286       .  A
O1083      H1093   0.990       .  S
O1084      H1097   0.990       .  S
C1085      C1184   1.475       .  S
H1105      O1550   0.990       .  S
N1108      C1112   1.358       .  A
N1108      C1109   1.356       .  A
N1108      C1264   1.441       .  S
C1109      C1110   1.381       .  A
C1109      C1171   1.478       .  S
C1110      C1111   1.372       .  A
C1110      H1113   1.082       .  S
C1111      C1112   1.382       .  A
C1111      H1114   1.082       .  S
C1112      C1200   1.479       .  S
N1115      C1119   1.362       .  A
N1115      C1116   1.360       .  A
N1115      C1248   1.448       .  S
C1116      C1117   1.380       .  A
C1116      C1216   1.480       .  S
C1117      C1118   1.368       .  A
C1117      H1120   1.082       .  S
C1118      C1119   1.381       .  A
C1118      H1121   1.082       .  S
C1119      C1152   1.485       .  S
C1122      N1123   1.362       .  A
C1122      N1127   1.361       .  A
C1122      C1136   1.504       .  S
N1123      C1124   1.365       .  A
C1124      N1125   1.359       .  A
C1124      C1168   1.503       .  S
N1125      C1126   1.359       .  A
C1126      N1127   1.358       .  A
C1126      C1155   1.497       .  S
N1128      C1132   1.361       .  A
N1128      C1129   1.358       .  A
N1128      C1235   1.446       .  S
C1129      C1130   1.380       .  A
C1129      C1139   1.477       .  S
C1130      C1131   1.370       .  A
C1130      H1133   1.082       .  S
C1131      C1132   1.381       .  A
C1131      H1134   1.082       .  S
C1132      C1187   1.478       .  S
C1135      C1136   1.413       .  A
C1135      H1142   1.081   1_655  S
C1136      C1137   1.425       .  A
C1137      C1138   1.405       .  A
C1137      C1144   1.505       .  S
C1139      C1140   1.405       .  A
C1140      C1141   1.506       .  S
C1141      H1145   1.111       .  S
C1141      H1146   1.111       .  S
C1141      H1147   1.110       .  S
C1144      H1148   1.108       .  S
C1144      H1149   1.110       .  S
C1144      H1150   1.111       .  S
C1151      C1152   1.403       .  A
C1151      C1156   1.405       .  A
C1151      H1158   1.084       .  S
C1153      C1154   1.404       .  A
C1153      C1160   1.505       .  S
C1154      C1155   1.408       .  A
C1154      H1159   1.081       .  S
C1156      C1157   1.506       .  S
C1157      H1161   1.111       .  S
C1157      H1162   1.106       .  S
C1160      H1165   1.107       .  S
C1160      H1166   1.111       .  S
C1167      C1168   1.409       .  A
C1167      C1172   1.405       .  A
C1167      H1174   1.081       .  S
C1168      C1169   1.423       .  A
C1169      C1170   1.404       .  A
C1169      C1176   1.507       .  S
C1170      C1171   1.399       .  A
C1170      H1175   1.085       .  S
C1171      C1172   1.410       .  A
C1172      C1173   1.505       .  S
C1173      H1177   1.111       .  S
C1173      H1178   1.110       .  S
C1173      H1179   1.108       .  S
C1176      H1180   1.110       .  S
C1176      H1181   1.107       .  S
C1176      H1182   1.111       .  S
C1183      C1184   1.402       .  A
C1183      C1188   1.403       .  A
C1184      C1185   1.412       .  A
C1185      C1186   1.403       .  A
C1185      C1192   1.507       .  S
C1186      C1187   1.404       .  A
C1186      H1191   1.084       .  S
C1187      C1188   1.412       .  A
C1189      H1193   1.111       .  S
C1189      H1194   1.111       .  S
C1189      H1195   1.105       .  S
C1192      H1196   1.108       .  S
C1192      H1197   1.109       .  S
C1192      H1198   1.111       .  S
C1199      C1200   1.404       .  A
C1199      C1204   1.408       .  A
C1199      H1206   1.084       .  S
C1200      C1201   1.416       .  A
C1201      C1202   1.396       .  A
C1201      C1208   1.509       .  S
C1202      C1203   1.399       .  A
C1202      H1207   1.085       .  S
C1203      C1204   1.415       .  A
C1204      C1205   1.507   1_545  S
C1205      H1209   1.111       .  S
C1205      H1210   1.110       .  S
C1205      H1685   1.110       .  S
C1208      H1212   1.107       .  S
C1208      H1213   1.110       .  S
C1208      H1214   1.111       .  S
H1211      C1679   1.109       .  S
C1215      C1216   1.401       .  A
C1215      C1220   1.409       .  A
C1215      H1222   1.084       .  S
C1216      C1217   1.416       .  A
C1217      C1218   1.399       .  A
C1218      C1219   1.398       .  A
C1219      C1220   1.418       .  A
C1220      C1221   1.508       .  S
C1221      H1225   1.111       .  S
C1221      H1226   1.110       .  S
C1221      H1227   1.111       .  S
C1224      H1228   1.108       .  S
C1224      H1229   1.108   1_655  S
C1224      H1230   1.111       .  S
C1231      C1232   1.402       .  A
C1231      C1236   1.407       .  A
C1231      H1238   1.085       .  S
C1232      C1233   1.414       .  A
C1233      C1234   1.404       .  A
C1234      C1235   1.402       .  A
C1235      C1236   1.417       .  A
C1236      C1237   1.505       .  S
C1237      H1241   1.110       .  S
C1237      H1242   1.107       .  S
C1237      H1243   1.111       .  S
C1240      H1245   1.110       .  S
C1240      H1246   1.111       .  S
C1247      C1248   1.405       .  A
C1247      C1252   1.413       .  A
C1248      C1249   1.415       .  A
C1249      C1250   1.402       .  A
C1249      C1256   1.505       .  S
C1250      C1251   1.403       .  A
C1250      H1255   1.084       .  S
C1251      C1252   1.418       .  A
C1253      H1257   1.111   1_455  S
C1253      H1258   1.109       .  S
C1253      H1259   1.110   1_455  S
C1256      H1260   1.110       .  S
C1256      H1261   1.104       .  S
C1256      H1262   1.111       .  S
C1263      C1264   1.402       .  A
C1263      C1268   1.403       .  A
C1263      H1270   1.084       .  S
C1264      C1265   1.415       .  A
C1265      C1266   1.404       .  A
C1265      C1272   1.505       .  S
C1266      C1267   1.403       .  A
C1266      H1271   1.085       .  S
C1267      C1268   1.414       .  A
C1268      C1269   1.507       .  S
C1269      H1273   1.111       .  S
C1269      H1274   1.109       .  S
C1269      H1275   1.110   1_545  S
C1272      H1276   1.106       .  S
C1272      H1277   1.110       .  S
C1272      H1278   1.110       .  S
C1279      C1280   1.401       .  A
C1279      C1284   1.401       .  A
C1279      H1286   1.081       .  S
C1280      C1281   1.414       .  A
C1281      C1282   1.406       .  A
C1281      C1288   1.504       .  S
C1282      C1283   1.404       .  A
C1282      H1287   1.084       .  S
C1283      C1284   1.415       .  A
C1284      C1285   1.507       .  S
C1285      H1289   1.111       .  S
C1285      H1290   1.108       .  S
C1285      H1291   1.110       .  S
C1288      H1292   1.108       .  S
C1288      H1293   1.111       .  S
C1288      H1294   1.111       .  S
C1295      C1296   1.403       .  A
C1295      C1300   1.400       .  A
C1295      H1302   1.084       .  S
C1296      C1297   1.413       .  A
C1297      C1298   1.406       .  A
C1297      C1304   1.505       .  S
C1298      C1299   1.403       .  A
C1298      H1303   1.084       .  S
C1299      C1300   1.411       .  A
C1300      C1301   1.507       .  S
C1301      H1305   1.111       .  S
C1301      H1306   1.108       .  S
C1301      H1307   1.109       .  S
C1304      H1308   1.110       .  S
C1304      H1309   1.106       .  S
C1304      H1310   1.111       .  S
C1311      C1312   1.411       .  A
C1311      C1316   1.400       .  A
C1311      H1318   1.083       .  S
C1312      C1313   1.424       .  A
C1313      C1314   1.410       .  A
C1313      C1320   1.505       .  S
C1314      C1315   1.401       .  A
C1314      H1319   1.084       .  S
C1315      C1316   1.409       .  A
C1316      C1317   1.508       .  S
C1317      H1321   1.110       .  S
C1317      H1322   1.109       .  S
C1317      H1323   1.110       .  S
C1320      H1324   1.110       .  S
C1320      H1325   1.107       .  S
C1320      H1326   1.111       .  S
C1327      C1328   1.402       .  A
C1327      C1332   1.410       .  A
C1327      H1334   1.083       .  S
C1328      C1329   1.413       .  A
C1329      C1330   1.399       .  A
C1329      C1336   1.507       .  S
C1330      C1331   1.403       .  A
C1330      H1335   1.085       .  S
C1331      C1332   1.418       .  A
C1332      C1333   1.504       .  S
C1333      H1337   1.111       .  S
C1333      H1338   1.107       .  S
C1333      H1339   1.110       .  S
C1336      H1340   1.110       .  S
C1336      H1342   1.110       .  S
C1343      C1344   1.404       .  A
C1343      C1348   1.411       .  A
C1343      H1350   1.084       .  S
C1344      C1345   1.416       .  A
C1345      C1346   1.398       .  A
C1345      C1352   1.509       .  S
C1346      C1347   1.399       .  A
C1346      H1351   1.085       .  S
C1347      C1348   1.416       .  A
C1348      C1349   1.506       .  S
C1349      H1353   1.111       .  S
C1349      H1354   1.110       .  S
C1349      H1355   1.109       .  S
C1352      H1356   1.106       .  S
C1352      H1357   1.110       .  S
C1352      H1358   1.111       .  S
C1359      C1360   1.408       .  A
C1359      C1364   1.402       .  A
C1359      H1366   1.083       .  S
C1360      C1361   1.417       .  A
C1361      C1362   1.406       .  A
C1361      C1368   1.504       .  S
C1362      C1363   1.401       .  A
C1362      H1367   1.083       .  S
C1363      C1364   1.411       .  A
C1364      C1365   1.507       .  S
C1365      H1369   1.111       .  S
C1365      H1370   1.109       .  S
C1365      H1371   1.109       .  S
C1368      H1372   1.109       .  S
C1368      H1373   1.109       .  S
C1368      H1374   1.110       .  S
C1375      C1376   1.403       .  A
C1375      C1380   1.408       .  A
C1375      H1382   1.084       .  S
C1376      C1377   1.415       .  A
C1377      C1378   1.406       .  A
C1377      C1384   1.505       .  S
C1378      C1379   1.404       .  A
C1378      H1383   1.085       .  S
C1379      C1380   1.417       .  A
C1380      C1381   1.505       .  S
C1381      H1385   1.111       .  S
C1381      H1386   1.111       .  S
C1381      H1387   1.106       .  S
C1384      H1388   1.110       .  S
C1384      H1389   1.106       .  S
C1384      H1390   1.111       .  S
C1391      C1392   1.403       .  A
C1391      C1396   1.404       .  A
C1391      H1398   1.084       .  S
C1392      C1393   1.409       .  A
C1393      C1394   1.401       .  A
C1393      C1400   1.507       .  S
C1394      C1395   1.403       .  A
C1394      H1399   1.084       .  S
C1395      C1396   1.411       .  A
C1396      C1397   1.505       .  S
C1397      H1402   1.108       .  S
C1400      H1404   1.110       .  S
C1400      H1405   1.110       .  S
C1400      H1406   1.111       .  S
C1407      C1408   1.399       .  A
C1407      C1412   1.405       .  A
C1407      H1414   1.084       .  S
C1408      C1409   1.408       .  A
C1409      C1410   1.407       .  A
C1409      C1416   1.506       .  S
C1410      C1411   1.411       .  A
C1410      H1415   1.081       .  S
C1411      C1412   1.427       .  A
C1412      C1413   1.506       .  S
C1413      H1417   1.111       .  S
C1413      H1418   1.110       .  S
C1413      H1419   1.110       .  S
C1416      H1420   1.109       .  S
C1416      H1421   1.110       .  S
C1416      H1422   1.111       .  S
N1423      C1427   1.359       .  A
N1423      C1424   1.360       .  A
N1423      C1850   1.445       .  S
C1424      C1425   1.382       .  A
C1424      C1882   1.480       .  S
C1425      C1426   1.369       .  A
C1425      H1428   1.082       .  S
C1426      C1427   1.379       .  A
C1426      H1429   1.082       .  S
C1427      C1869   1.475       .  S
N1430      C1434   1.357       .  A
N1430      C1431   1.357       .  A
N1430      C1802   1.440       .  S
C1431      C1432   1.383       .  A
C1431      C1818   1.483       .  S
C1432      C1433   1.374       .  A
C1432      H1435   1.082       .  S
C1433      C1434   1.381       .  A
C1433      H1436   1.082       .  S
C1434      C1837   1.478       .  S
C1437      N1438   1.366       .  A
C1437      N1442   1.359       .  A
C1437      C1885   1.507       .  S
N1438      C1439   1.363       .  A
C1439      N1440   1.360       .  A
C1439      C1786   1.506       .  S
N1440      C1441   1.358       .  A
C1441      N1442   1.358       .  A
C1441      C1834   1.492       .  S
N1443      C1447   1.362       .  A
N1443      C1444   1.360       .  A
N1443      C1754   1.445       .  S
C1444      C1445   1.381       .  A
C1444      C1789   1.480       .  S
C1445      C1446   1.370       .  A
C1445      H1448   1.082       .  S
C1446      C1447   1.381       .  A
C1446      H1449   1.082       .  S
C1447      C1770   1.479       .  S
Zr1450     O1451   2.439       .  S
Zr1450     O1453   2.460       .  S
Zr1450     O1458   2.385       .  S
Zr1450     O1460   2.409       .  S
O1451      H1507   0.990       .  S
O1452      C1472   1.285       .  A
O1453      C1474   1.288       .  A
O1454     Zr1464   2.428       .  S
O1454      C1473   1.285       .  A
O1455     Zr1463   2.431       .  S
O1455      C1474   1.284       .  A
O1456      C1473   1.289       .  A
O1457     Zr1465   2.420       .  S
O1457      C1472   1.281       .  A
O1458     Zr1463   2.398       .  S
O1459     Zr1464   2.389       .  S
O1459     Zr1465   2.377       .  S
O1459      H1494   0.965       .  S
O1460     Zr1463   2.405       .  S
O1460      H1497   0.967       .  S
O1461     Zr1464   2.394       .  S
Zr1462     O1481   2.421       .  S
Zr1462     O1477   2.423       .  S
Zr1462     O1469   2.399       .  S
Zr1462     O1470   2.376       .  S
Zr1463     O1482   2.435       .  S
Zr1463     O1475   2.435       .  S
Zr1463     O1476   2.448   1_554  S
Zr1463     O1469   2.391   1_554  S
Zr1463     O1470   2.383   1_554  S
Zr1464     O1466   2.435       .  S
Zr1464     O1488   2.438       .  S
Zr1464     O1490   2.446   1_554  S
Zr1464     O1468   2.386   1_554  S
Zr1464     O1471   2.387   1_554  S
Zr1465     O1491   2.436       .  S
Zr1465     O1492   2.435   1_554  S
Zr1465     O1467   2.437       .  S
Zr1465     O1468   2.398   1_554  S
O1466      H1503   0.990       .  S
O1467      H1498   0.990       .  S
O1469      H1495   0.966       .  S
O1471      H1496   0.966       .  S
C1472      C1741   1.477       .  S
C1473      C1725   1.493       .  S
C1474      C1706   1.483       .  S
O1475      H1511   0.990       .  S
O1476      C1478   1.289       .  A
O1477      C1478   1.282       .  A
C1478      C1821   1.481       .  S
O1479     Zr1480   2.441       .  S
O1479      H1508   0.990       .  S
Zr1480     O1483   2.437       .  S
Zr1480     O1484   2.439       .  S
Zr1480     O1485   2.430   1_554  S
O1482      H1499   0.990       .  S
O1483      H1500   0.990       .  S
O1484      H1504   0.990   1_554  S
O1484      H1513   0.990   1_565  S
O1485      C1486   1.284       .  A
C1486      C1773   1.471       .  S
O1487      H1506   0.990       .  S
O1487      H1510   0.990       .  S
O1488      H1502   0.990       .  S
O1488      H1509   0.990       .  S
O1489      C1493   1.280       .  A
O1490      C1493   1.287       .  A
O1491      H1501   0.990       .  S
O1492      H1505   0.990       .  S
C1493      C1866   1.470       .  S
Zr1516     O1518   2.458       .  S
Zr1516     O1522   2.453       .  S
Zr1516     O1525   2.385       .  S
Zr1516     O1527   2.408       .  S
O1517      H1573   0.990       .  S
O1517      H1581   0.990       .  S
O1519      C1540   1.288       .  A
O1520     Zr1530   2.418       .  S
O1520      C1539   1.283       .  A
O1521     Zr1529   2.436       .  S
O1521      C1540   1.285       .  A
O1522      C1539   1.287       .  A
O1523     Zr1531   2.407       .  S
O1523      C1538   1.278       .  A
O1524     Zr1529   2.400       .  S
O1525     Zr1530   2.393       .  S
O1525      H1560   0.965       .  S
O1526     Zr1529   2.403       .  S
O1526     Zr1546   2.398       .  S
O1526      H1563   0.965       .  S
O1527     Zr1530   2.394       .  S
Zr1528     O1553   2.442       .  S
Zr1528     O1555   2.420       .  S
Zr1528     O1534   2.394       .  S
Zr1528     O1537   2.379       .  S
Zr1529     O1548   2.437       .  S
Zr1529     O1541   2.435       .  S
Zr1529     O1542   2.448       .  S
Zr1529     O1535   2.395       .  S
Zr1529     O1536   2.383       .  S
Zr1530     O1532   2.435       .  S
Zr1530     O1554   2.435       .  S
Zr1530     O1556   2.439       .  S
Zr1530     O1534   2.391       .  S
Zr1530     O1537   2.380       .  S
Zr1531     O1557   2.437       .  S
Zr1531     O1558   2.437       .  S
Zr1531     O1533   2.436       .  S
O1532      H1569   0.990       .  S
O1533      H1564   0.990       .  S
O1533      H1578   0.990       .  S
O1535      H1561   0.966       .  S
O1536     Zr1546   2.368       .  S
O1537      H1562   0.965       .  S
C1538      C1757   1.484       .  S
C1539      C1805   1.484       .  S
C1540      C1853   1.491       .  S
O1541      H1577   0.990       .  S
O1542      C1544   1.289       .  A
O1543      C1544   1.281       .  A
C1544      C1693   1.476       .  S
O1545     Zr1546   2.439       .  S
O1545      H1574   0.990       .  S
Zr1546     O1549   2.437       .  S
Zr1546     O1550   2.438       .  S
Zr1546     O1551   2.438       .  S
O1547      C1552   1.280       .  A
O1548      H1565   0.990       .  S
O1548      H1580   0.990       .  S
O1549      H1566   0.990       .  S
O1550      H1570   0.990       .  S
O1551      C1552   1.286       .  A
C1552      C1677   1.475       .  S
O1554      H1568   0.990       .  S
O1555      C1559   1.282       .  A
O1556      C1559   1.286       .  A
O1557      H1567   0.990       .  S
O1558      H1571   0.990       .  S
C1559      C1658   1.475       .  S
N1582      C1586   1.358       .  A
N1582      C1583   1.357       .  A
N1582      C1738   1.441       .  S
C1583      C1584   1.381       .  A
C1583      C1645   1.479       .  S
C1584      C1585   1.372       .  A
C1584      H1587   1.082       .  S
C1585      C1586   1.382       .  A
C1585      H1588   1.082       .  S
C1586      C1674   1.479       .  S
N1589      C1593   1.363       .  A
N1589      C1590   1.359       .  A
N1589      C1722   1.448       .  S
C1590      C1591   1.381       .  A
C1590      C1690   1.480       .  S
C1591      C1592   1.370       .  A
C1591      H1594   1.082       .  S
C1592      C1593   1.382       .  A
C1592      H1595   1.082       .  S
C1593      C1626   1.487       .  S
C1596      N1597   1.361       .  A
C1596      N1601   1.361       .  A
C1596      C1610   1.504       .  S
N1597      C1598   1.364       .  A
C1598      N1599   1.360       .  A
C1598      C1642   1.503       .  S
N1599      C1600   1.360       .  A
C1600      N1601   1.357       .  A
C1600      C1629   1.498       .  S
N1602      C1606   1.361       .  A
N1602      C1603   1.357       .  A
N1602      C1709   1.446       .  S
C1603      C1604   1.380       .  A
C1603      C1613   1.475       .  S
C1604      C1605   1.370       .  A
C1604      H1607   1.082       .  S
C1605      C1606   1.381       .  A
C1605      H1608   1.082       .  S
C1606      C1661   1.478       .  S
C1609      C1610   1.412       .  A
C1609      H1616   1.080   1_655  S
C1610      C1611   1.426       .  A
C1611      C1612   1.405       .  A
C1611      C1618   1.505       .  S
C1613      C1614   1.405       .  A
C1614      C1615   1.506       .  S
C1615      H1619   1.111       .  S
C1615      H1620   1.110       .  S
C1615      H1621   1.110       .  S
C1618      H1622   1.108       .  S
C1618      H1623   1.110       .  S
C1618      H1624   1.111       .  S
C1625      C1626   1.404       .  A
C1625      C1630   1.407       .  A
C1625      H1632   1.084       .  S
C1627      C1628   1.406       .  A
C1627      C1634   1.504       .  S
C1628      C1629   1.408       .  A
C1628      H1633   1.082       .  S
C1630      C1631   1.507       .  S
C1631      H1635   1.111       .  S
C1631      H1636   1.106       .  S
C1634      H1639   1.107       .  S
C1634      H1640   1.111       .  S
C1641      C1642   1.409       .  A
C1641      C1646   1.405       .  A
C1641      H1648   1.081       .  S
C1642      C1643   1.422       .  A
C1643      C1644   1.405       .  A
C1643      C1650   1.506       .  S
C1644      C1645   1.400       .  A
C1644      H1649   1.084       .  S
C1645      C1646   1.410       .  A
C1646      C1647   1.506       .  S
C1647      H1651   1.111       .  S
C1647      H1652   1.110       .  S
C1647      H1653   1.108       .  S
C1650      H1654   1.110       .  S
C1650      H1655   1.107       .  S
C1650      H1656   1.111       .  S
C1657      C1658   1.402       .  A
C1657      C1662   1.404       .  A
C1658      C1659   1.412       .  A
C1659      C1660   1.403       .  A
C1659      C1666   1.507       .  S
C1660      C1661   1.404       .  A
C1660      H1665   1.084       .  S
C1661      C1662   1.413       .  A
C1663      H1667   1.111       .  S
C1663      H1668   1.110       .  S
C1663      H1669   1.105       .  S
C1666      H1670   1.108       .  S
C1666      H1671   1.110       .  S
C1666      H1672   1.111       .  S
C1673      C1674   1.403       .  A
C1673      C1678   1.408       .  A
C1673      H1680   1.084       .  S
C1674      C1675   1.415       .  A
C1675      C1676   1.396       .  A
C1675      C1682   1.509       .  S
C1676      C1677   1.399       .  A
C1676      H1681   1.085       .  S
C1677      C1678   1.416       .  A
C1678      C1679   1.507       .  S
C1679      H1683   1.111       .  S
C1679      H1684   1.110       .  S
C1682      H1686   1.107       .  S
C1682      H1687   1.110       .  S
C1682      H1688   1.111       .  S
C1689      C1690   1.402       .  A
C1689      C1694   1.410       .  A
C1689      H1696   1.084       .  S
C1690      C1691   1.416       .  A
C1691      C1692   1.399       .  A
C1692      C1693   1.398       .  A
C1693      C1694   1.417       .  A
C1694      C1695   1.507       .  S
C1695      H1699   1.111       .  S
C1695      H1700   1.109       .  S
C1695      H1701   1.111       .  S
C1698      H1702   1.108   1_455  S
C1698      H1703   1.108       .  S
C1698      H1704   1.111   1_455  S
C1705      C1706   1.403       .  A
C1705      C1710   1.408       .  A
C1705      H1712   1.084       .  S
C1706      C1707   1.414       .  A
C1707      C1708   1.404       .  A
C1708      C1709   1.403       .  A
C1709      C1710   1.417       .  A
C1710      C1711   1.505       .  S
C1711      H1715   1.110       .  S
C1711      H1716   1.107       .  S
C1711      H1717   1.110       .  S
C1714      H1719   1.110       .  S
C1714      H1720   1.111       .  S
C1721      C1722   1.405       .  A
C1721      C1726   1.413       .  A
C1722      C1723   1.414       .  A
C1723      C1724   1.402       .  A
C1723      C1730   1.506       .  S
C1724      C1725   1.404       .  A
C1724      H1729   1.084       .  S
C1725      C1726   1.418       .  A
C1727      H1731   1.111   1_455  S
C1727      H1732   1.108       .  S
C1727      H1733   1.111   1_455  S
C1730      H1734   1.110       .  S
C1730      H1735   1.105       .  S
C1730      H1736   1.111       .  S
C1737      C1738   1.402       .  A
C1737      C1742   1.402       .  A
C1737      H1744   1.084       .  S
C1738      C1739   1.415       .  A
C1739      C1740   1.403       .  A
C1739      C1746   1.505       .  S
C1740      C1741   1.403       .  A
C1740      H1745   1.085       .  S
C1741      C1742   1.414       .  A
C1742      C1743   1.507       .  S
C1743      H1747   1.111       .  S
C1743      H1748   1.109       .  S
C1743      H1749   1.110       .  S
C1746      H1750   1.106       .  S
C1746      H1751   1.111       .  S
C1746      H1752   1.110       .  S
C1753      C1754   1.402       .  A
C1753      C1758   1.403       .  A
C1753      H1760   1.082       .  S
C1754      C1755   1.416       .  A
C1755      C1756   1.407       .  A
C1755      C1762   1.504       .  S
C1756      C1757   1.404       .  A
C1756      H1761   1.085       .  S
C1757      C1758   1.417       .  A
C1758      C1759   1.507       .  S
C1759      H1763   1.111       .  S
C1759      H1764   1.108       .  S
C1759      H1765   1.110       .  S
C1762      H1766   1.108       .  S
C1762      H1767   1.110       .  S
C1762      H1768   1.111       .  S
C1769      C1770   1.404       .  A
C1769      C1774   1.400       .  A
C1769      H1776   1.084       .  S
C1770      C1771   1.413       .  A
C1771      C1772   1.406       .  A
C1771      C1778   1.505       .  S
C1772      C1773   1.403       .  A
C1772      H1777   1.084       .  S
C1773      C1774   1.411       .  A
C1774      C1775   1.508       .  S
C1775      H1779   1.111       .  S
C1775      H1780   1.108       .  S
C1775      H1781   1.109       .  S
C1778      H1782   1.110       .  S
C1778      H1783   1.105       .  S
C1778      H1784   1.111       .  S
C1785      C1786   1.412       .  A
C1785      C1790   1.400       .  A
C1785      H1792   1.083       .  S
C1786      C1787   1.424       .  A
C1787      C1788   1.411       .  A
C1787      C1794   1.505       .  S
C1788      C1789   1.401       .  A
C1788      H1793   1.084       .  S
C1789      C1790   1.409       .  A
C1790      C1791   1.508       .  S
C1791      H1795   1.110       .  S
C1791      H1796   1.109       .  S
C1791      H1797   1.110       .  S
C1794      H1798   1.110       .  S
C1794      H1799   1.107       .  S
C1794      H1800   1.111       .  S
C1801      C1802   1.403       .  A
C1801      C1806   1.411       .  A
C1801      H1808   1.083       .  S
C1802      C1803   1.414       .  A
C1803      C1804   1.399       .  A
C1803      C1810   1.507       .  S
C1804      C1805   1.402       .  A
C1804      H1809   1.085       .  S
C1805      C1806   1.417       .  A
C1806      C1807   1.504       .  S
C1807      H1811   1.111       .  S
C1807      H1812   1.107       .  S
C1807      H1813   1.111       .  S
C1810      H1814   1.110       .  S
C1810      H1816   1.110       .  S
C1817      C1818   1.404       .  A
C1817      C1822   1.411       .  A
C1817      H1824   1.084       .  S
C1818      C1819   1.417       .  A
C1819      C1820   1.397       .  A
C1819      C1826   1.509       .  S
C1820      C1821   1.399       .  A
C1820      H1825   1.085       .  S
C1821      C1822   1.418       .  A
C1822      C1823   1.506       .  S
C1823      H1827   1.111       .  S
C1823      H1828   1.109       .  S
C1823      H1829   1.109       .  S
C1826      H1830   1.106       .  S
C1826      H1831   1.110       .  S
C1826      H1832   1.111       .  S
C1833      C1834   1.407       .  A
C1833      C1838   1.401       .  A
C1833      H1840   1.082       .  S
C1834      C1835   1.418       .  A
C1835      C1836   1.407       .  A
C1835      C1842   1.505       .  S
C1836      C1837   1.402       .  A
C1836      H1841   1.084       .  S
C1837      C1838   1.411       .  A
C1838      C1839   1.508       .  S
C1839      H1843   1.111       .  S
C1839      H1844   1.109       .  S
C1839      H1845   1.109       .  S
C1842      H1846   1.109       .  S
C1842      H1847   1.109       .  S
C1842      H1848   1.111       .  S
C1849      C1850   1.402       .  A
C1849      C1854   1.408       .  A
C1849      H1856   1.083       .  S
C1850      C1851   1.415       .  A
C1851      C1852   1.406       .  A
C1851      C1858   1.506       .  S
C1852      C1853   1.404       .  A
C1852      H1857   1.085       .  S
C1853      C1854   1.418       .  A
C1854      C1855   1.504       .  S
C1855      H1859   1.111       .  S
C1855      H1860   1.110       .  S
C1855      H1861   1.106       .  S
C1858      H1862   1.110       .  S
C1858      H1863   1.106       .  S
C1858      H1864   1.111       .  S
C1865      C1866   1.403       .  A
C1865      C1870   1.405       .  A
C1865      H1872   1.084       .  S
C1866      C1867   1.410       .  A
C1867      C1868   1.402       .  A
C1867      C1874   1.507       .  S
C1868      C1869   1.403       .  A
C1868      H1873   1.084       .  S
C1869      C1870   1.410       .  A
C1870      C1871   1.505       .  S
C1871      H1876   1.108       .  S
C1874      H1878   1.111       .  S
C1874      H1879   1.110       .  S
C1874      H1880   1.111       .  S
C1881      C1882   1.398       .  A
C1881      C1886   1.405       .  A
C1881      H1888   1.084       .  S
C1882      C1883   1.409       .  A
C1883      C1884   1.407       .  A
C1883      C1890   1.506       .  S
C1884      C1885   1.410       .  A
C1884      H1889   1.081       .  S
C1885      C1886   1.428       .  A
C1886      C1887   1.507       .  S
C1887      H1891   1.111       .  S
C1887      H1892   1.110       .  S
C1887      H1893   1.110       .  S
C1890      H1894   1.108       .  S
C1890      H1895   1.110       .  S
C1890      H1896   1.111       .  S
