geometry optimzed in LAMMPS
_audit_creation_date              2020-12-01 
_audit_creation_method            'lammps2cif' 
_symmetry_space_group_name_H-M    'P1' 
_symmetry_Int_Tables_number       1 
_symmetry_cell_setting            triclinic 
loop_ 
_symmetry_equiv_pos_as_xyz 
  x,y,z 
_cell_length_a                    48.94366379 
_cell_length_b                    26.79400457447983 
_cell_length_c                    33.032279378060174 
_cell_angle_alpha                 90.35581578641634 
_cell_angle_beta                  90.32206532736384 
_cell_angle_gamma                 120.81964963112128 
loop_ 
_atom_site_label 
_atom_site_type_symbol 
_atom_site_fract_x 
_atom_site_fract_y 
_atom_site_fract_z 
_atom_site_charge 
C1          C  0.11129271  0.33380289  0.75662325     0.81500
N2          N  0.10432516  0.30540928  0.79237038    -0.76800
C3          C  0.08990559  0.24671508  0.79282472     0.84000
N4          N  0.08327738  0.21693446  0.75731536    -0.76700
C5          C  0.09036568  0.24462595  0.72130606     0.84100
N6          N  0.10429705  0.30341155  0.72122372    -0.78400
C7          C  0.11860012  0.80624836  0.74522703     0.81500
N8          N  0.11243976  0.82413556  0.78066246    -0.76800
C9          C  0.10047727  0.85991805  0.78100215     0.84000
N10         N  0.09459263  0.87770179  0.74527419    -0.76700
C11         C  0.10055840  0.85979569  0.70953078     0.84100
N12         N  0.11255612  0.82408848  0.70975940    -0.78400
C13         C  0.17868395  0.67079946  0.75073694     0.81500
N14         N  0.16263968  0.61200919  0.75216818    -0.76800
C15         C  0.17881404  0.58334747  0.75360808     0.84000
N16         N  0.21116784  0.61393132  0.75377772    -0.76700
C17         C  0.22719506  0.67288360  0.75268251     0.84100
N18         N  0.21085748  0.70103461  0.75100681    -0.78400
C19         C  0.36344654  0.81274019  0.74789157     0.81500
N20         N  0.38100496  0.83070700  0.78258546    -0.76800
C21         C  0.41322038  0.86398502  0.78140058     0.84000
N22         N  0.42764084  0.87994838  0.74476304    -0.76700
C23         C  0.41024075  0.86208070  0.70987758     0.84100
N24         N  0.37816194  0.82784452  0.71157361    -0.78400
O25         O  0.08405879  0.13484435  0.96935561    -0.79600
O26         O  0.06062559  0.91467532  0.06985563    -0.64300
O27         O  0.08365486  0.03396805  0.99335885    -1.10900
C28         C  0.48787950  0.91207944  0.92817439     1.07300
O29         O  0.02712534  0.83648203  0.03337987    -0.77500
O30         O  0.04984660  0.88078897  0.95776833    -0.65100
Ni31       Ni  0.09891024  0.11053549  0.01508806     1.34900
C32         C  0.06037428  0.91778857  0.92942841     0.86000
O33         O  0.11383143  0.01264623  0.05547717    -0.78000
O34         O  0.11808687  0.09896875  0.06248482    -0.88300
C35         C  0.04358671  0.86017983  0.06527937     0.85600
O36         O  0.06026768  0.08549495  0.04377012    -0.66500
O37         O  0.49320985  0.87262674  0.93968888    -0.85800
C38         C  0.05063791  0.04800732  0.07183185     0.86400
C39         C  0.12551412  0.06178533  0.07285981     1.08000
H40         H  0.01541376  0.93999833  0.02605195     0.39800
O41         O  0.03050686  0.93899837  0.00783458    -1.08400
O42         O  0.05629836  0.96118523  0.92917385    -0.65100
Ni43       Ni  0.04263051  0.99790387  0.96840965     1.26300
O44         O  0.05776936  0.00845249  0.07260574    -0.65300
O45         O  0.00139188  0.96206092  0.94437185    -0.77600
C46         C  0.07077445  0.11151977  0.93569866     0.85800
O47         O  0.05569185  0.05717035  0.92995260    -0.64800
Ni48       Ni  0.01245640  0.86096001  0.98743439     1.27400
Ni49       Ni  0.07218013  0.97468656  0.03209105     1.26100
H50         H  0.09936314  0.03494663  0.97510695     0.40400
O51         O  0.02387096  0.84540718  0.45657464    -0.79600
O52         O  0.05391091  0.05797269  0.57377484    -0.64300
O53         O  0.02904118  0.94792443  0.48812879    -1.10900
C54         C  0.12856465  0.06715318  0.43479615     1.07300
O55         O  0.08888429  0.13877284  0.54227323    -0.77500
O56         O  0.06740016  0.10275534  0.46336901    -0.65100
Ni57       Ni  0.00850102  0.86762567  0.50339360     1.34900
C58         C  0.05653838  0.06720763  0.43355550     0.86000
O59         O  0.99899242  0.96846554  0.55082632    -0.78000
O60         O  0.48805705  0.87717833  0.55071814    -0.88300
C61         C  0.07237656  0.11250228  0.57315320     0.85600
O62         O  0.04423787  0.88078310  0.53550194    -0.66500
O63         O  0.12365876  0.10694450  0.44735596    -0.85800
C64         C  0.05510664  0.91586465  0.56552598     0.86400
C65         C  0.48337207  0.91702031  0.56388449     1.08000
H66         H  0.09714089  0.03193201  0.52952425     0.39800
O67         O  0.08332328  0.03638059  0.51074468    -1.08400
O68         O  0.06145534  0.02503748  0.43030174    -0.65100
Ni69       Ni  0.07130235  0.98150641  0.46783545     1.26300
O70         O  0.05095221  0.95895552  0.56872540    -0.65300
O71         O  0.11349189  0.01613833  0.44865257    -0.77600
C72         C  0.04088421  0.87176440  0.42603010     0.85800
O73         O  0.05886614  0.92638949  0.42518539    -0.64800
Ni74       Ni  0.10360854  0.11653729  0.49500290     1.27400
Ni75       Ni  0.04114782  0.00277056  0.53124050     1.26100
H76         H  0.01536648  0.95263053  0.46943894     0.40400
C77         C  0.24937296  0.16180022  0.25227490     0.81500
N78         N  0.23209723  0.14255689  0.21739734    -0.76800
C79         C  0.19988268  0.11109104  0.21863462     0.84000
N80         N  0.18506873  0.09818731  0.25491138    -0.76700
C81         C  0.20217755  0.11677507  0.28986293     0.84100
N82         N  0.23434399  0.14935535  0.28844795    -0.78400
C83         C  0.48941012  0.16243082  0.24882389     0.81500
N84         N  0.49252520  0.13777925  0.21458472    -0.76800
C85         C  0.00380600  0.10098926  0.21593950     0.84000
N86         N  0.01169535  0.08858618  0.25250959    -0.76700
C87         C  0.00840184  0.11262150  0.28721649     0.84100
N88         N  0.49750991  0.14999350  0.28508820    -0.78400
C89         C  0.43446586  0.30674667  0.24788768     0.81500
N90         N  0.45033897  0.36550285  0.25210209    -0.76800
C91         C  0.43384403  0.39362935  0.25420789     0.84000
N92         N  0.40151688  0.36283013  0.25266485    -0.76700
C93         C  0.38567425  0.30402551  0.24913368     0.84100
N94         N  0.40229046  0.27652610  0.24648191    -0.78400
C95         C  0.00323249  0.64392980  0.24874893     0.81500
N96         N  0.01097056  0.67055485  0.21222263    -0.76800
C97         C  0.02689493  0.72936569  0.20999086     0.84000
N98         N  0.03455710  0.76142962  0.24461314    -0.76700
C99         C  0.02674220  0.73575186  0.28139539     0.84100
N100        N  0.01108139  0.67675205  0.28318187    -0.78400
C101        C  0.44600188  0.48580403  0.22184270     0.24900
C102        C  0.45089726  0.45735743  0.25403897    -0.21000
C103        C  0.47280044  0.49009380  0.28484055     0.19800
C104        C  0.98962794  0.55090121  0.28349029     0.24800
C105        C  0.98517791  0.57968576  0.25081211    -0.23100
C106        C  0.46317565  0.54636766  0.21996786     0.19700
F107        F  0.45783401  0.57226580  0.18820509    -0.13100
F108        F  0.42515523  0.45470714  0.19152826    -0.15500
F109        F  0.01088560  0.58147219  0.31352923    -0.15500
F110        F  0.97758232  0.46315024  0.31642348    -0.13100
C111        C  0.45242752  0.19056402  0.21931230     0.24900
C112        C  0.47727322  0.20239195  0.24644409    -0.23200
C113        C  0.49008230  0.25221739  0.27141251     0.19800
C114        C  0.47738060  0.28851761  0.27033161     0.24800
C115        C  0.45138049  0.27476630  0.24479189    -0.23100
C116        C  0.43953271  0.22634880  0.21859088     0.19700
F117        F  0.41514964  0.21325227  0.19251081    -0.13100
F118        F  0.43958768  0.14283124  0.19477542    -0.15500
F119        F  0.48944262  0.33532933  0.29563557    -0.15500
F120        F  0.51487313  0.26573799  0.29683681    -0.13100
C121        C  0.30169057  0.18447598  0.22470918     0.24900
C122        C  0.28411539  0.19871486  0.25078995    -0.23200
C123        C  0.29994169  0.24886096  0.27529905     0.19800
C124        C  0.33299444  0.28424441  0.27393027     0.24800
C125        C  0.35069904  0.26947831  0.24842622    -0.23100
C126        C  0.33477015  0.21929639  0.22379086     0.19700
F127        F  0.35120124  0.20410733  0.19858490    -0.13100
F128        F  0.28691934  0.13592706  0.20100466    -0.15500
F129        F  0.34773279  0.33169897  0.29862554    -0.15500
F130        F  0.28332729  0.26409788  0.30012469    -0.13100
C131        C  0.02942533  0.74757120  0.35757921     0.24900
C132        C  0.03291601  0.77172570  0.31875340    -0.23200
C133        C  0.04095625  0.83028717  0.31602760     0.19800
C134        C  0.04413529  0.86273451  0.35085320     0.24800
C135        C  0.03933541  0.83779581  0.38948208    -0.23100
C136        C  0.03244525  0.78015017  0.39246514     0.19700
F137        F  0.02900117  0.75538334  0.42924684    -0.13100
F138        F  0.02313948  0.69235305  0.36205292    -0.15500
F139        F  0.05066822  0.91812971  0.34642221    -0.15500
F140        F  0.04476665  0.85624003  0.27961782    -0.13100
C141        C  0.14231649  0.03498934  0.37107509     0.24900
C142        C  0.14996120  0.07895464  0.40021290    -0.23200
C143        C  0.17627644  0.13492163  0.39376834     0.19800
C144        C  0.19426792  0.14678741  0.35854217     0.24800
C145        C  0.18560843  0.10333210  0.32880264    -0.23100
C146        C  0.15973291  0.04730087  0.33553597     0.19700
F147        F  0.15112258  0.00439773  0.30745995    -0.13100
F148        F  0.11688966  0.98065142  0.37584555    -0.15500
F149        F  0.21909680  0.20145515  0.35254628    -0.15500
F150        F  0.18432780  0.17827360  0.42126851    -0.13100
C151        C  0.02511844  0.03336361  0.36878607     0.24900
C152        C  0.03971312  0.07633125  0.39941475    -0.23200
C153        C  0.04061180  0.12934664  0.39454241     0.19800
C154        C  0.52941376  0.14058531  0.35862621     0.24800
C155        C  0.01737580  0.09924691  0.32679727    -0.23100
C156        C  0.01457074  0.04502360  0.33280236     0.19700
F157        F  0.00157148  0.00288532  0.30375013    -0.13100
F158        F  0.02141701  0.97989116  0.37312846    -0.15500
F159        F  0.53193199  0.19314263  0.35431924    -0.15500
F160        F  0.55352673  0.17141726  0.42363846    -0.13100
C161        C  0.01619916  0.76553394  0.10262008     0.24900
C162        C  0.04197141  0.82300535  0.09938320    -0.23200
C163        C  0.06473742  0.84629594  0.13102587     0.19800
C164        C  0.06055572  0.81454337  0.16614281     0.24800
C165        C  0.03368933  0.75873776  0.17044170    -0.23100
C166        C  0.01212300  0.73374480  0.13778910     0.19700
F167        F  0.98581524  0.68006550  0.14083737    -0.13100
F168        F  0.99373712  0.74109150  0.07289025    -0.15500
F169        F  0.08262383  0.83893987  0.19633060    -0.15500
F170        F  0.09078869  0.90047717  0.12857185    -0.13100
C171        C  0.02189497  0.09223163  0.10533122     0.24900
C172        C  0.03312187  0.05333503  0.10664206    -0.23200
C173        C  0.03011388  0.02370424  0.14309571     0.19800
C174        C  0.01892308  0.03671514  0.17810559     0.24800
C175        C  0.01036973  0.07954344  0.17762181    -0.23100
C176        C  0.01054194  0.10498533  0.14022031     0.19700
F177        F  0.00120611  0.14461222  0.13735638    -0.13100
F178        F  0.02285141  0.11976932  0.07053242    -0.15500
F179        F  0.51735650  0.00826673  0.21268653    -0.15500
F180        F  0.03951041  0.98411104  0.14575211    -0.13100
C181        C  0.17083926  0.06466152  0.11072721     0.24900
C182        C  0.14523077  0.07427506  0.10937145    -0.23200
C183        C  0.13769727  0.09545471  0.14394699     0.19800
C184        C  0.15526366  0.10639338  0.17952599     0.24800
C185        C  0.18099152  0.09708800  0.18109371    -0.23100
C186        C  0.18891127  0.07666456  0.14636311     0.19700
F187        F  0.21374088  0.06751030  0.14717797    -0.13100
F188        F  0.17877728  0.04518772  0.07736993    -0.15500
F189        F  0.14766604  0.12784280  0.21214864    -0.15500
F190        F  0.11282583  0.10457901  0.14352202    -0.13100
C191        C  0.41927240  0.83351106  0.64145948     0.24900
C192        C  0.42625942  0.87713676  0.67044676    -0.23200
C193        C  0.44949599  0.93481304  0.66208508     0.19800
C194        C  0.46650235  0.94844948  0.62596675     0.24800
C195        C  0.46128160  0.90416776  0.59810754    -0.23100
C196        C  0.43688781  0.84672950  0.60582359     0.19700
F197        F  0.43041718  0.80310020  0.57922737    -0.13100
F198        F  0.39651449  0.77749038  0.64862487    -0.15500
F199        F  0.48909239  0.00470896  0.61932109    -0.15500
F200        F  0.45582435  0.97799188  0.68904768    -0.13100
C201        C  0.41792306  0.86980919  0.85791344     0.24900
C202        C  0.43244374  0.87917744  0.81952766    -0.23200
C203        C  0.46546709  0.90064083  0.81811196     0.19800
C204        C  0.48317683  0.91154512  0.85375233     0.24800
C205        C  0.46854490  0.90163998  0.89154291    -0.23100
C206        C  0.43592431  0.88106391  0.89356366     0.19700
F207        F  0.42144867  0.87109010  0.93002180    -0.13100
F208        F  0.38629934  0.84947539  0.86122688    -0.15500
F209        F  0.01476892  0.93113142  0.85136384    -0.15500
F210        F  0.48074597  0.90961557  0.78233220    -0.13100
C211        C  0.31226963  0.72734585  0.72398538     0.24900
C212        C  0.32865471  0.77612849  0.74967845    -0.23200
C213        C  0.31152735  0.78992121  0.77693924     0.19800
C214        C  0.27841562  0.75587208  0.77807160     0.24800
C215        C  0.26207062  0.70673397  0.75271660    -0.23100
C216        C  0.27918353  0.69241712  0.72586472     0.19700
F217        F  0.26376432  0.64600136  0.70036754    -0.13100
F218        F  0.32833365  0.71314908  0.69740792    -0.15500
F219        F  0.26228570  0.77072328  0.80408147    -0.15500
F220        F  0.32676567  0.83751174  0.80146873    -0.13100
C221        C  0.08178862  0.83846825  0.63728393     0.24900
C222        C  0.09268061  0.87685694  0.67076797    -0.23200
C223        C  0.09466118  0.93076690  0.66744640     0.19800
C224        C  0.08411439  0.94470127  0.63238592     0.24800
C225        C  0.07108975  0.90473308  0.59970377    -0.23100
C226        C  0.07109201  0.85221718  0.60210399     0.19700
F227        F  0.05946125  0.81276277  0.57125068    -0.13100
F228        F  0.07975003  0.78605058  0.63929007    -0.15500
F229        F  0.08604305  0.99705670  0.63113254    -0.15500
F230        F  0.10670264  0.97015818  0.69832752    -0.13100
C231        C  0.08432632  0.84058203  0.85363827     0.24900
C232        C  0.09290736  0.87741717  0.81998380    -0.23200
C233        C  0.09362490  0.93034637  0.82390004     0.19800
C234        C  0.08507728  0.94536822  0.86030869     0.24800
C235        C  0.07500455  0.90718301  0.89353023    -0.23100
C236        C  0.07547168  0.85516704  0.88987138     0.19700
F237        F  0.06607168  0.81673244  0.92072704    -0.13100
F238        F  0.08283220  0.78864957  0.85104890    -0.15500
F239        F  0.08589748  0.99676029  0.86239176    -0.15500
F240        F  0.10256226  0.96776260  0.79245408    -0.13100
C241        C  0.12494992  0.72793905  0.77635053     0.24900
C242        C  0.13237111  0.76869081  0.74535323    -0.23200
C243        C  0.15396915  0.77463941  0.71515781     0.19800
C244        C  0.16871112  0.74193883  0.71677575     0.24800
C245        C  0.16159539  0.70206114  0.74800573    -0.23100
C246        C  0.13935439  0.69452651  0.77746633     0.19700
F247        F  0.13262462  0.65662775  0.80820509    -0.13100
F248        F  0.10369449  0.72022760  0.80545877    -0.15500
F249        F  0.19003260  0.74922366  0.68784991    -0.15500
F250        F  0.16181451  0.81369242  0.68494382    -0.13100
C251        C  0.06526675  0.11819214  0.64793594     0.24900
C252        C  0.07530179  0.14642389  0.61041354    -0.23200
C253        C  0.08950270  0.20729709  0.60954140     0.19800
C254        C  0.09405925  0.23915339  0.64526237     0.24800
C255        C  0.08434145  0.21093183  0.68288425    -0.23100
C256        C  0.06965376  0.14981420  0.68351851     0.19700
F257        F  0.05990407  0.11988087  0.71866313    -0.13100
F258        F  0.05210256  0.05975694  0.65080463    -0.15500
F259        F  0.10857045  0.29785468  0.64274998    -0.15500
F260        F  0.09917134  0.23642220  0.57409732    -0.13100
C261        C  0.10254804  0.24053459  0.86561932     0.24900
C262        C  0.08288121  0.21510684  0.83132642    -0.23200
C263        C  0.05752459  0.15731967  0.83316001     0.19800
C264        C  0.05283474  0.12457282  0.86771716     0.24800
C265        C  0.07347379  0.14881339  0.90136160    -0.23100
C266        C  0.09805501  0.20755652  0.90024141     0.19700
F267        F  0.11895639  0.23232913  0.93161477    -0.13100
F268        F  0.12730726  0.29624100  0.86493588    -0.15500
F269        F  0.02831839  0.06858767  0.86774302    -0.15500
F270        F  0.03724898  0.13204317  0.80126790    -0.13100
C271        C  0.11709381  0.42622921  0.73175863     0.24900
C272        C  0.12803500  0.39744165  0.75634607    -0.23200
C273        C  0.15548302  0.42985503  0.78033610     0.19800
C274        C  0.17222800  0.49044414  0.77912948     0.24800
C275        C  0.16128984  0.51945881  0.75464896    -0.23100
C276        C  0.13338595  0.48689500  0.73127450     0.19700
F277        F  0.12232872  0.51373949  0.70719007    -0.13100
F278        F  0.09032506  0.39557428  0.70880490    -0.15500
F279        F  0.19877648  0.52073831  0.80250806    -0.15500
F280        F  0.16656772  0.40276045  0.80411544    -0.13100
C281        C  0.61128671  0.33380138  0.75661903     0.81500
N282        N  0.60431892  0.30540852  0.79236656    -0.76800
C283        C  0.58989929  0.24671422  0.79282166     0.84000
N284        N  0.58327140  0.21693308  0.75731256    -0.76700
C285        C  0.59035984  0.24462372  0.72130297     0.84100
N286        N  0.60429128  0.30340926  0.72121992    -0.78400
C287        C  0.61860106  0.80624944  0.74522525     0.81500
N288        N  0.61244186  0.82413803  0.78066093    -0.76800
C289        C  0.60047960  0.85992095  0.78100104     0.84000
N290        N  0.59459397  0.87770356  0.74527318    -0.76700
C291        C  0.60055855  0.85979599  0.70952954     0.84100
N292        N  0.61255607  0.82408850  0.70975785    -0.78400
C293        C  0.67868433  0.67079919  0.75073115     0.81500
N294        N  0.66263969  0.61200886  0.75216104    -0.76800
C295        C  0.67881360  0.58334635  0.75360102     0.84000
N296        N  0.71116742  0.61392955  0.75377238    -0.76700
C297        C  0.72719507  0.67288198  0.75267856     0.84100
N298        N  0.71085787  0.70103375  0.75100258    -0.78400
C299        C  0.86344655  0.81274041  0.74789084     0.81500
N300        N  0.88100476  0.83070724  0.78258480    -0.76800
C301        C  0.91322011  0.86398646  0.78140032     0.84000
N302        N  0.92764078  0.87995109  0.74476293    -0.76700
C303        C  0.91024089  0.86208349  0.70987727     0.84100
N304        N  0.87816210  0.82784599  0.71157300    -0.78400
O305        O  0.58406075  0.13484777  0.96935261    -0.79600
O306        O  0.56062816  0.91467953  0.06985498    -0.64300
O307        O  0.58365667  0.03397168  0.99335751    -1.10900
C308        C  0.98787732  0.91207841  0.92817545     1.07300
O309        O  0.52712981  0.83648609  0.03337793    -0.77500
O310        O  0.54985125  0.88079506  0.95776741    -0.65100
Ni311      Ni  0.59891176  0.11053935  0.01508601     1.34900
C312        C  0.56037842  0.91779449  0.92942744     0.86000
O313        O  0.61383352  0.01265169  0.05547659    -0.78000
O314        O  0.61808796  0.09897342  0.06248365    -0.88300
C315        C  0.54359055  0.86018390  0.06527785     0.85600
O316        O  0.56026875  0.08549794  0.04376706    -0.66500
O317        O  0.99320624  0.87262432  0.93969077    -0.85800
C318        C  0.55063890  0.04801100  0.07182930     0.86400
C319        C  0.62551569  0.06179078  0.07285902     1.08000
H320        H  0.51541571  0.93999954  0.02605063     0.39800
O321        O  0.53050925  0.93900085  0.00783334    -1.08400
O322        O  0.55630089  0.96118930  0.92917233    -0.65100
Ni323      Ni  0.54263215  0.99790621  0.96840854     1.26300
O324        O  0.55777067  0.00845649  0.07260418    -0.65300
O325        O  0.50139325  0.96206163  0.94437122    -0.77600
C326        C  0.57077497  0.11152199  0.93569650     0.85800
O327        O  0.55569237  0.05717238  0.92995152    -0.64800
Ni328      Ni  0.51246030  0.86096318  0.98743260     1.27400
Ni329      Ni  0.57218234  0.97469069  0.03209020     1.26100
H330        H  0.59936511  0.03495032  0.97510553     0.40400
O331        O  0.52386979  0.84540551  0.45657273    -0.79600
O332        O  0.55390833  0.05796896  0.57377383    -0.64300
O333        O  0.52903912  0.94792166  0.48812736    -1.10900
C334        C  0.62856288  0.06715228  0.43479539     1.07300
O335        O  0.58888130  0.13876955  0.54227231    -0.77500
O336        O  0.56739875  0.10275428  0.46336783    -0.65100
Ni337      Ni  0.50849967  0.86762289  0.50339209     1.34900
C338        C  0.55653710  0.06720731  0.43355394     0.86000
O339        O  0.49899015  0.96846128  0.55082513    -0.78000
O340        O  0.98805850  0.87718209  0.55071933    -0.88300
C341        C  0.57237348  0.11249866  0.57315208     0.85600
O342        O  0.54423677  0.88078094  0.53550033    -0.66500
O343        O  0.62365725  0.10694348  0.44735602    -0.85800
C344        C  0.55510523  0.91586223  0.56552457     0.86400
C345        C  0.98337382  0.91702450  0.56388547     1.08000
H346        H  0.59713857  0.03192919  0.52952267     0.39800
O347        O  0.58332107  0.03637804  0.51074345    -1.08400
O348        O  0.56145298  0.02503583  0.43030025    -0.65100
Ni349      Ni  0.57130024  0.98150456  0.46783374     1.26300
O350        O  0.55095035  0.95895257  0.56872410    -0.65300
O351        O  0.61348973  0.01613686  0.44865074    -0.77600
C352        C  0.54088260  0.87176330  0.42602799     0.85800
O353        O  0.55886411  0.92638843  0.42518340    -0.64800
Ni354      Ni  0.60360643  0.11653509  0.49500253     1.27400
Ni355      Ni  0.54114558  0.00276726  0.53123933     1.26100
H356        H  0.51536444  0.95262743  0.46943795     0.40400
C357        C  0.74937309  0.16180412  0.25227665     0.81500
N358        N  0.73209792  0.14256259  0.21739854    -0.76800
C359        C  0.69988330  0.11109780  0.21863490     0.84000
N360        N  0.68506876  0.09819322  0.25491126    -0.76700
C361        C  0.70217703  0.11677929  0.28986326     0.84100
N362        N  0.73434351  0.14935846  0.28844925    -0.78400
C363        C  0.98940916  0.16242708  0.24882551     0.81500
N364        N  0.99252429  0.13777520  0.21458650    -0.76800
C365        C  0.50380728  0.10099386  0.21593714     0.84000
N366        N  0.51169691  0.08859039  0.25250696    -0.76700
C367        C  0.50840362  0.11262574  0.28721404     0.84100
N368        N  0.99750837  0.14998949  0.28509010    -0.78400
C369        C  0.93446598  0.30674403  0.24789245     0.81500
N370        N  0.95033949  0.36550020  0.25210685    -0.76800
C371        C  0.93384495  0.39362732  0.25421350     0.84000
N372        N  0.90151778  0.36282876  0.25267111    -0.76700
C373        C  0.88567474  0.30402414  0.24913988     0.84100
N374        N  0.90229055  0.27652406  0.24648737    -0.78400
C375        C  0.50323300  0.64393193  0.24874601     0.81500
N376        N  0.51097287  0.67055724  0.21221987    -0.76800
C377        C  0.52689831  0.72936817  0.20998825     0.84000
N378        N  0.53455975  0.76143199  0.24461058    -0.76700
C379        C  0.52674305  0.73575381  0.28139265     0.84100
N380        N  0.51108118  0.67675395  0.28317889    -0.78400
C381        C  0.94600274  0.48580082  0.22184684     0.24900
C382        C  0.95089852  0.45735533  0.25404348    -0.21000
C383        C  0.97280237  0.49009266  0.28484419     0.19800
C384        C  0.48962636  0.55090238  0.28348734     0.24800
C385        C  0.48517734  0.57968795  0.25080903    -0.23100
C386        C  0.96317615  0.54636436  0.21997127     0.19700
F387        F  0.95783401  0.57226124  0.18820811    -0.13100
F388        F  0.92515596  0.45470287  0.19153276    -0.15500
F389        F  0.51088343  0.58147241  0.31352705    -0.15500
F390        F  0.47757942  0.46315038  0.31642000    -0.13100
C391        C  0.95242625  0.19056021  0.21931524     0.24900
C392        C  0.97727288  0.20238891  0.24644552    -0.23200
C393        C  0.99008316  0.25221526  0.27141307     0.19800
C394        C  0.97738147  0.28851543  0.27033329     0.24800
C395        C  0.95138029  0.27476328  0.24479539    -0.23100
C396        C  0.93953150  0.22634510  0.21859480     0.19700
F397        F  0.91514746  0.21324793  0.19251626    -0.13100
F398        F  0.93958540  0.14282651  0.19477918    -0.15500
F399        F  0.98944453  0.33532782  0.29563672    -0.15500
F400        F  0.01487507  0.26573658  0.29683559    -0.13100
C401        C  0.80169081  0.18447848  0.22471216     0.24900
C402        C  0.78411565  0.19871734  0.25079297    -0.23200
C403        C  0.79994213  0.24886180  0.27530365     0.19800
C404        C  0.83299500  0.28424385  0.27393614     0.24800
C405        C  0.85069953  0.26947788  0.24843186    -0.23100
C406        C  0.83477048  0.21929748  0.22379510     0.19700
F407        F  0.85120151  0.20410870  0.19858881    -0.13100
F408        F  0.78691941  0.13593092  0.20100634    -0.15500
F409        F  0.84773352  0.33169695  0.29863272    -0.15500
F410        F  0.78332782  0.26409855  0.30012959    -0.13100
C411        C  0.52942396  0.74757129  0.35757634     0.24900
C412        C  0.53291600  0.77172701  0.31875073    -0.23200
C413        C  0.54095660  0.83028868  0.31602526     0.19800
C414        C  0.54413478  0.86273518  0.35085105     0.24800
C415        C  0.53933403  0.83779544  0.38947971    -0.23100
C416        C  0.53244341  0.78014953  0.39246239     0.19700
F417        F  0.52899836  0.75538162  0.42924387    -0.13100
F418        F  0.52313720  0.69235254  0.36204979    -0.15500
F419        F  0.55066769  0.91813050  0.34642045    -0.15500
F420        F  0.54476807  0.85624239  0.27961561    -0.13100
C421        C  0.64231551  0.03499053  0.37107408     0.24900
C422        C  0.64995977  0.07895495  0.40021245    -0.23200
C423        C  0.67627473  0.13492250  0.39376855     0.19800
C424        C  0.69426643  0.14678962  0.35854251     0.24800
C425        C  0.68560740  0.10333514  0.32880250    -0.23100
C426        C  0.65973211  0.04730346  0.33553506     0.19700
F427        F  0.65112224  0.00440123  0.30745842    -0.13100
F428        F  0.61688897  0.98065212  0.37584393    -0.15500
F429        F  0.71909508  0.20145781  0.35254723    -0.15500
F430        F  0.68432558  0.17827373  0.42126919    -0.13100
C431        C  0.52511384  0.03336309  0.36878686     0.24900
C432        C  0.53971326  0.07633367  0.39941284    -0.23200
C433        C  0.54061859  0.12935451  0.39453709     0.19800
C434        C  0.02940607  0.14057646  0.35863184     0.24800
C435        C  0.51737786  0.09925142  0.32679462    -0.23100
C436        C  0.51456704  0.04502404  0.33280258     0.19700
F437        F  0.50156282  0.00288289  0.30375271    -0.13100
F438        F  0.52140683  0.97988687  0.37313265    -0.15500
F439        F  0.03191771  0.19312894  0.35432852    -0.15500
F440        F  0.05351375  0.17140504  0.42364720    -0.13100
C441        C  0.51620441  0.76553654  0.10261684     0.24900
C442        C  0.54197584  0.82300891  0.09938101    -0.23200
C443        C  0.56474155  0.84629954  0.13102398     0.19800
C444        C  0.56055977  0.81454657  0.16614078     0.24800
C445        C  0.53369371  0.75874034  0.17043898    -0.23100
C446        C  0.51212827  0.73374688  0.13778554     0.19700
F447        F  0.48582121  0.68006645  0.14083262    -0.13100
F448        F  0.49374301  0.74109349  0.07288630    -0.15500
F449        F  0.58262736  0.83894332  0.19632911    -0.15500
F450        F  0.59079255  0.90048115  0.12857032    -0.13100
C451        C  0.52190126  0.09224491  0.10532980     0.24900
C452        C  0.53312255  0.05333976  0.10663893    -0.23200
C453        C  0.53010921  0.02370186  0.14309085     0.19800
C454        C  0.51891877  0.03671345  0.17810090     0.24800
C455        C  0.51037112  0.07954940  0.17761894    -0.23100
C456        C  0.51054884  0.10499954  0.14021900     0.19700
F457        F  0.50121953  0.14463581  0.13735701    -0.13100
F458        F  0.52286305  0.11979066  0.07053284    -0.15500
F459        F  0.01736648  0.00827587  0.21269281    -0.15500
F460        F  0.53949975  0.98410005  0.14574543    -0.13100
C461        C  0.67084200  0.06467144  0.11072638     0.24900
C462        C  0.64523215  0.07428117  0.10937085    -0.23200
C463        C  0.63769718  0.09545768  0.14394673     0.19800
C464        C  0.65526353  0.10639721  0.17952586     0.24800
C465        C  0.68099267  0.09709535  0.18109348    -0.23100
C466        C  0.68891382  0.07667498  0.14636249     0.19700
F467        F  0.71374465  0.06752412  0.14717711    -0.13100
F468        F  0.67878143  0.04520078  0.07736871    -0.15500
F469        F  0.64766452  0.12784396  0.21214877    -0.15500
F470        F  0.61282430  0.10457795  0.14352190    -0.13100
C471        C  0.91927261  0.83351533  0.64145864     0.24900
C472        C  0.92625981  0.87714041  0.67044653    -0.23200
C473        C  0.94949695  0.93481668  0.66208560     0.19800
C474        C  0.96650378  0.94845347  0.62596760     0.24800
C475        C  0.96128290  0.90417213  0.59810797    -0.23100
C476        C  0.93688844  0.84673411  0.60582309     0.19700
F477        F  0.93041759  0.80310528  0.57922632    -0.13100
F478        F  0.89651418  0.77749472  0.64862315    -0.15500
F479        F  0.98909438  0.00471279  0.61932266    -0.15500
F480        F  0.95582544  0.97799512  0.68904862    -0.13100
C481        C  0.91792136  0.86980467  0.85791325     0.24900
C482        C  0.93244304  0.87917860  0.81952774    -0.23200
C483        C  0.96546693  0.90064693  0.81811269     0.19800
C484        C  0.98317626  0.91155080  0.85375341     0.24800
C485        C  0.96854327  0.90163986  0.89154364    -0.23100
C486        C  0.93592208  0.88105825  0.89356374     0.19700
F487        F  0.92144541  0.87107812  0.93002153    -0.13100
F488        F  0.88629710  0.84946611  0.86122623    -0.15500
F489        F  0.51476895  0.93112120  0.85136209    -0.15500
F490        F  0.98074680  0.90962697  0.78233322    -0.13100
C491        C  0.81227042  0.72734358  0.72398556     0.24900
C492        C  0.82865482  0.77612744  0.74967766    -0.23200
C493        C  0.81152689  0.78991999  0.77693761     0.19800
C494        C  0.77841515  0.75587027  0.77806933     0.24800
C495        C  0.76207071  0.70673178  0.75271449    -0.23100
C496        C  0.77918432  0.69241429  0.72586425     0.19700
F497        F  0.76376579  0.64599740  0.70036788    -0.13100
F498        F  0.82833515  0.71314626  0.69740969    -0.15500
F499        F  0.76228470  0.77072145  0.80407829    -0.15500
F500        F  0.82676465  0.83751097  0.80146680    -0.13100
C501        C  0.58178767  0.83846696  0.63728307     0.24900
C502        C  0.59268002  0.87685630  0.67076679    -0.23200
C503        C  0.59466074  0.93076632  0.66744470     0.19800
C504        C  0.58411358  0.94469998  0.63238418     0.24800
C505        C  0.57108852  0.90473111  0.59970244    -0.23100
C506        C  0.57109071  0.85221519  0.60210310     0.19700
F507        F  0.55945966  0.81276021  0.57125015    -0.13100
F508        F  0.57974938  0.78604954  0.63928942    -0.15500
F509        F  0.58604250  0.99705559  0.63113027    -0.15500
F510        F  0.60670299  0.97015857  0.69832519    -0.13100
C511        C  0.58433276  0.84058983  0.85363896     0.24900
C512        C  0.59291120  0.87742209  0.81998309    -0.23200
C513        C  0.59362763  0.93035046  0.82389846     0.19800
C514        C  0.58508058  0.94537334  0.86030718     0.24800
C515        C  0.57500965  0.90719011  0.89352974    -0.23100
C516        C  0.57547911  0.85517624  0.88987229     0.19700
F517        F  0.56608229  0.81674483  0.92072969    -0.13100
F518        F  0.58284010  0.78865854  0.85105089    -0.15500
F519        F  0.58589943  0.99676426  0.86238933    -0.15500
F520        F  0.60256316  0.96776473  0.79245149    -0.13100
C521        C  0.62495207  0.72794119  0.77634847     0.24900
C522        C  0.63237208  0.76869185  0.74535072    -0.23200
C523        C  0.65396883  0.77463900  0.71515378     0.19800
C524        C  0.66871073  0.74193822  0.71677069     0.24800
C525        C  0.66159608  0.70206153  0.74800104    -0.23100
C526        C  0.63935636  0.69452828  0.77746315     0.19700
F527        F  0.63262764  0.65663034  0.80820217    -0.13100
F528        F  0.60369788  0.72023099  0.80545815    -0.15500
F529        F  0.69003098  0.74922168  0.68784344    -0.15500
F530        F  0.66181287  0.81369061  0.68493910    -0.13100
C531        C  0.56526436  0.11818921  0.64793473     0.24900
C532        C  0.57529798  0.14642023  0.61041195    -0.23200
C533        C  0.58949677  0.20729292  0.60953887     0.19800
C534        C  0.59405262  0.23914963  0.64525937     0.24800
C535        C  0.58433626  0.21092891  0.68288169    -0.23100
C536        C  0.56965079  0.14981167  0.68351689     0.19700
F537        F  0.55990292  0.11987922  0.71866200    -0.13100
F538        F  0.55210224  0.05975455  0.65080410    -0.15500
F539        F  0.60856163  0.29785051  0.64274605    -0.15500
F540        F  0.59916387  0.23641709  0.57409428    -0.13100
C541        C  0.60253992  0.24053810  0.86561830     0.24900
C542        C  0.58287569  0.21510633  0.83132376    -0.23200
C543        C  0.55752308  0.15731531  0.83315600     0.19800
C544        C  0.55283532  0.12456905  0.86771286     0.24800
C545        C  0.57347219  0.14881400  0.90135899    -0.23100
C546        C  0.59804882  0.20756082  0.90024039     0.19700
F547        F  0.61894768  0.23233887  0.93161563    -0.13100
F548        F  0.62729495  0.29624852  0.86493683    -0.15500
F549        F  0.52832321  0.06858006  0.86773646    -0.15500
F550        F  0.53724940  0.13203406  0.80126273    -0.13100
C551        C  0.61709090  0.42622924  0.73175212     0.24900
C552        C  0.62803049  0.39744029  0.75634082    -0.23200
C553        C  0.65547904  0.42985238  0.78033017     0.19800
C554        C  0.67222573  0.49044147  0.77912235     0.24800
C555        C  0.66128873  0.51945757  0.75464134    -0.23100
C556        C  0.63338474  0.48689511  0.73126680     0.19700
F557        F  0.62232895  0.51374097  0.70718133    -0.13100
F558        F  0.59032209  0.39557569  0.70879825    -0.15500
F559        F  0.69877463  0.52073424  0.80250040    -0.15500
F560        F  0.66656260  0.40275640  0.80411000    -0.13100
loop_ 
_geom_bond_atom_site_label_1 
_geom_bond_atom_site_label_2 
_geom_bond_distance 
_geom_bond_site_symmetry_2 
_ccdc_geom_bond_type 
C1            N2   1.356       .  A
C1            N6   1.359       .  A
C1          C272   1.465       .  S
N2            C3   1.355       .  A
C3            N4   1.355       .  A
C3          C262   1.474       .  S
N4            C5   1.356       .  A
C5            N6   1.358       .  A
C5          C255   1.490       .  S
C7            N8   1.355       .  A
C7           N12   1.355       .  A
C7          C242   1.470       .  S
N8            C9   1.355       .  A
C9           N10   1.359       .  A
C9          C232   1.480       .  S
N10          C11   1.360       .  A
C11          N12   1.355       .  A
C11         C222   1.476       .  S
C13          N14   1.354       .  A
C13          N18   1.352       .  A
C13         C245   1.459       .  S
N14          C15   1.357       .  A
C15          N16   1.360       .  A
C15         C275   1.471       .  S
N16          C17   1.358       .  A
C17          N18   1.353       .  A
C17         C215   1.466       .  S
C19          N20   1.357       .  A
C19          N24   1.356       .  A
C19         C212   1.468       .  S
N20          C21   1.358       .  A
C21          N22   1.361       .  A
C21         C202   1.492       .  S
N22          C23   1.359       .  A
C23          N24   1.355       .  A
C23         C192   1.472       .  S
O25         Ni31   1.929   1_556  S
O25          C46   1.271       .  A
O26         Ni49   1.887       .  S
O26          C35   1.264       .  A
O27         Ni31   1.920   1_556  S
O27         Ni49   1.896   1_546  S
O27         Ni43   1.905   1_545  S
O27          H50   0.970       .  S
C28         C205   1.466       .  S
C28          O37   1.271       .  A
C28         O325   1.264       .  A
O29         Ni48   1.932   1_554  S
O29          C35   1.273       .  A
O30         Ni48   1.903       .  S
O30          C32   1.272       .  A
Ni31         O34   1.928       .  S
Ni31         O36   1.911       .  S
C32         C235   1.488       .  S
C32          O42   1.277       .  A
O33         Ni49   1.907   1_545  S
O33          C39   1.267       .  A
O34          C39   1.271       .  A
C35         C162   1.484       .  S
O36          C38   1.273       .  A
O37        Ni328   1.940       .  S
C38         C172   1.487       .  S
C38          O44   1.275       .  A
C39         C182   1.466       .  S
H40          O41   0.966       .  S
O41         Ni49   1.921       .  S
O41         Ni43   1.901   1_554  S
O41         Ni48   1.921   1_554  S
O42         Ni43   1.940       .  S
Ni43         O47   1.881   1_565  S
Ni43         O45   1.901       .  S
O44         Ni49   1.938   1_545  S
O45         C308   1.264   1_455  A
C46         C265   1.477       .  S
C46          O47   1.263       .  A
Ni48        O317   1.940   1_455  S
O51         Ni57   1.942       .  S
O51          C72   1.275       .  A
O52         Ni75   1.889       .  S
O52          C61   1.265       .  A
O53         Ni57   1.923       .  S
O53         Ni75   1.900   1_565  S
O53         Ni69   1.911       .  S
O53          H76   0.963       .  S
C54         C142   1.477       .  S
C54          O71   1.265       .  A
C54          O63   1.275       .  A
O55         Ni74   1.937       .  S
O55          C61   1.274       .  A
O56         Ni74   1.916       .  S
O56          C58   1.274       .  A
Ni57         O62   1.911       .  S
Ni57        O340   1.946   1_455  S
C58         C152   1.486       .  S
C58          O68   1.274       .  A
O59         Ni75   1.897   1_665  S
O59         C345   1.266       .  A
O60        Ni337   1.946       .  S
O60          C65   1.276       .  A
C61         C252   1.487       .  S
O62          C64   1.273       .  A
O63         Ni74   1.943       .  S
C64         C225   1.486       .  S
C64          O70   1.275       .  A
C65         C195   1.484       .  S
C65         O339   1.266       .  A
H66          O67   0.967       .  S
O67         Ni75   1.910       .  S
O67         Ni69   1.896   1_545  S
O67         Ni74   1.924       .  S
O68         Ni69   1.928   1_545  S
Ni69         O73   1.892       .  S
Ni69         O71   1.893   1_565  S
O70         Ni75   1.931   1_565  S
C72         C135   1.485       .  S
C72          O73   1.264       .  A
C77          N78   1.358       .  A
C77          N82   1.358       .  A
C77         C122   1.466       .  S
N78          C79   1.356       .  A
C79          N80   1.356       .  A
C79         C185   1.469       .  S
N80          C81   1.355       .  A
C81          N82   1.355       .  A
C81         C145   1.470       .  S
C83          N84   1.354       .  A
C83          N88   1.356       .  A
C83         C112   1.469       .  S
N84         C365   1.355       .  A
C85          N86   1.360       .  A
C85         N364   1.355   1_455  A
C85         C175   1.490       .  S
N86          C87   1.362       .  A
C87         N368   1.356   1_455  A
C87         C155   1.480       .  S
N88         C367   1.356       .  A
C89          N90   1.358       .  A
C89          N94   1.353       .  A
C89         C115   1.469       .  S
N90          C91   1.359       .  A
C91          N92   1.359       .  A
C91         C102   1.467       .  S
N92          C93   1.357       .  A
C93          N94   1.351       .  A
C93         C125   1.471       .  S
C95          N96   1.359       .  A
C95         N100   1.361       .  A
C95         C105   1.481   1_455  S
N96          C97   1.356       .  A
C97          N98   1.356       .  A
C97         C165   1.479       .  S
N98          C99   1.357       .  A
C99         N100   1.360       .  A
C99         C132   1.492       .  S
C101        C102   1.401       .  A
C101        C106   1.396       .  A
C101        F108   1.358       .  S
C102        C103   1.402       .  A
C103        C384   1.400       .  A
C103        F390   1.358       .  S
C104        C105   1.410       .  A
C104        C383   1.400       .  A
C104        F109   1.358   1_655  S
C105        C386   1.409       .  A
C106        C385   1.409       .  A
C106        F107   1.357       .  S
F110        C383   1.358       .  S
C111        C112   1.404       .  A
C111        C116   1.392       .  A
C111        F118   1.358       .  S
C112        C113   1.407       .  A
C113        C114   1.398       .  A
C113        F120   1.358       .  S
C114        C115   1.404       .  A
C114        F119   1.358       .  S
C115        C116   1.406       .  A
C116        F117   1.358       .  S
C121        C122   1.403       .  A
C121        C126   1.395       .  A
C121        F128   1.358       .  S
C122        C123   1.405       .  A
C123        C124   1.396       .  A
C123        F130   1.358       .  S
C124        C125   1.404       .  A
C124        F129   1.358       .  S
C125        C126   1.408       .  A
C126        F127   1.358       .  S
C131        C132   1.412       .  A
C131        C136   1.402       .  A
C131        F138   1.357       .  S
C132        C133   1.412       .  A
C133        C134   1.397       .  A
C133        F140   1.358       .  S
C134        C135   1.408       .  A
C134        F139   1.358       .  S
C135        C136   1.406       .  A
C136        F137   1.357       .  S
C141        C142   1.409       .  A
C141        C146   1.393       .  A
C141        F148   1.357   1_545  S
C142        C143   1.407       .  A
C143        C144   1.400       .  A
C143        F150   1.358       .  S
C144        C145   1.406       .  A
C144        F149   1.358       .  S
C145        C146   1.402       .  A
C146        F147   1.358       .  S
C151        C152   1.412       .  A
C151        C156   1.393       .  A
C151        F158   1.358   1_545  S
C152        C153   1.409       .  A
C153        C434   1.402       .  A
C153        F440   1.358       .  S
C154        C433   1.402       .  A
C154        C435   1.410       .  A
C154        F159   1.358       .  S
C155        C156   1.403       .  A
C155        C434   1.410       .  A
C156        F157   1.358       .  S
F160        C433   1.358       .  S
C161        C162   1.410       .  A
C161        C166   1.398       .  A
C161        F168   1.358   1_455  S
C162        C163   1.411       .  A
C163        C164   1.396       .  A
C163        F170   1.359       .  S
C164        C165   1.405       .  A
C164        F169   1.358       .  S
C165        C166   1.407       .  A
C166        F167   1.357   1_455  S
C171        C172   1.406       .  A
C171        C176   1.397       .  A
C171        F178   1.358       .  S
C172        C173   1.413       .  A
C173        C174   1.399       .  A
C173        F180   1.358   1_545  S
C174        C175   1.409       .  A
C174        F459   1.358       .  S
C175        C176   1.413       .  A
C176        F177   1.358       .  S
F179        C454   1.358       .  S
C181        C182   1.403       .  A
C181        C186   1.401       .  A
C181        F188   1.357       .  S
C182        C183   1.405       .  A
C183        C184   1.390       .  A
C183        F190   1.359       .  S
C184        C185   1.404       .  A
C184        F189   1.359       .  S
C185        C186   1.407       .  A
C186        F187   1.358       .  S
C191        C192   1.405       .  A
C191        C196   1.399       .  A
C191        F198   1.358       .  S
C192        C193   1.402       .  A
C193        C194   1.398       .  A
C193        F200   1.358       .  S
C194        C195   1.412       .  A
C194        F199   1.357   1_565  S
C195        C196   1.409       .  A
C196        F197   1.358       .  S
C201        C202   1.417       .  A
C201        C206   1.402       .  A
C201        F208   1.358       .  S
C202        C203   1.412       .  A
C203        C204   1.396       .  A
C203        F210   1.358       .  S
C204        C205   1.400       .  A
C204        F489   1.358       .  S
C205        C206   1.399       .  A
C206        F207   1.358       .  S
F209        C484   1.358   1_455  S
C211        C212   1.406       .  A
C211        C216   1.397       .  A
C211        F218   1.358       .  S
C212        C213   1.404       .  A
C213        C214   1.395       .  A
C213        F220   1.358       .  S
C214        C215   1.405       .  A
C214        F219   1.358       .  S
C215        C216   1.403       .  A
C216        F217   1.358       .  S
C221        C222   1.408       .  A
C221        C226   1.399       .  A
C221        F228   1.358       .  S
C222        C223   1.402       .  A
C223        C224   1.394       .  A
C223        F230   1.358       .  S
C224        C225   1.413       .  A
C224        F229   1.358       .  S
C225        C226   1.410       .  A
C226        F227   1.358       .  S
C231        C232   1.407       .  A
C231        C236   1.395       .  A
C231        F238   1.358       .  S
C232        C233   1.406       .  A
C233        C234   1.398       .  A
C233        F240   1.358       .  S
C234        C235   1.413       .  A
C234        F239   1.358       .  S
C235        C236   1.410       .  A
C236        F237   1.358       .  S
C241        C242   1.409       .  A
C241        C246   1.395       .  A
C241        F248   1.358       .  S
C242        C243   1.407       .  A
C243        C244   1.393       .  A
C243        F250   1.358       .  S
C244        C245   1.401       .  A
C244        F249   1.358       .  S
C245        C246   1.401       .  A
C246        F247   1.358       .  S
C251        C252   1.410       .  A
C251        C256   1.394       .  A
C251        F258   1.358       .  S
C252        C253   1.408       .  A
C253        C254   1.400       .  A
C253        F260   1.358       .  S
C254        C255   1.411       .  A
C254        F259   1.357       .  S
C255        C256   1.412       .  A
C256        F257   1.358       .  S
C261        C262   1.407       .  A
C261        C266   1.398       .  A
C261        F268   1.358       .  S
C262        C263   1.405       .  A
C263        C264   1.391       .  A
C263        F270   1.358       .  S
C264        C265   1.408       .  A
C264        F269   1.359       .  S
C265        C266   1.410       .  A
C266        F267   1.358       .  S
C271        C272   1.403       .  A
C271        C276   1.397       .  A
C271        F278   1.358       .  S
C272        C273   1.404       .  A
C273        C274   1.395       .  A
C273        F280   1.358       .  S
C274        C275   1.405       .  A
C274        F279   1.358       .  S
C275        C276   1.408       .  A
C276        F277   1.358       .  S
C281        N282   1.356       .  A
C281        N286   1.359       .  A
C281        C552   1.465       .  S
N282        C283   1.355       .  A
C283        N284   1.355       .  A
C283        C542   1.474       .  S
N284        C285   1.356       .  A
C285        N286   1.358       .  A
C285        C535   1.490       .  S
C287        N288   1.355       .  A
C287        N292   1.355       .  A
C287        C522   1.470       .  S
N288        C289   1.355       .  A
C289        N290   1.359       .  A
C289        C512   1.480       .  S
N290        C291   1.360       .  A
C291        N292   1.355       .  A
C291        C502   1.476       .  S
C293        N294   1.354       .  A
C293        N298   1.352       .  A
C293        C525   1.459       .  S
N294        C295   1.357       .  A
C295        N296   1.360       .  A
C295        C555   1.471       .  S
N296        C297   1.358       .  A
C297        N298   1.353       .  A
C297        C495   1.466       .  S
C299        N300   1.357       .  A
C299        N304   1.356       .  A
C299        C492   1.468       .  S
N300        C301   1.358       .  A
C301        N302   1.361       .  A
C301        C482   1.492       .  S
N302        C303   1.359       .  A
C303        N304   1.355       .  A
C303        C472   1.472       .  S
O305       Ni311   1.929   1_556  S
O305        C326   1.271       .  A
O306       Ni329   1.887       .  S
O306        C315   1.264       .  A
O307       Ni311   1.920   1_556  S
O307       Ni329   1.896   1_546  S
O307       Ni323   1.905   1_545  S
O307        H330   0.970       .  S
C308        C485   1.466       .  S
C308        O317   1.271       .  A
O309       Ni328   1.932   1_554  S
O309        C315   1.273       .  A
O310       Ni328   1.903       .  S
O310        C312   1.272       .  A
Ni311       O314   1.928       .  S
Ni311       O316   1.911       .  S
C312        C515   1.488       .  S
C312        O322   1.277       .  A
O313       Ni329   1.907   1_545  S
O313        C319   1.267       .  A
O314        C319   1.271       .  A
C315        C442   1.484       .  S
O316        C318   1.273       .  A
C318        C452   1.487       .  S
C318        O324   1.275       .  A
C319        C462   1.466       .  S
H320        O321   0.966       .  S
O321       Ni329   1.921       .  S
O321       Ni323   1.901   1_554  S
O321       Ni328   1.921   1_554  S
O322       Ni323   1.940       .  S
Ni323       O327   1.881   1_565  S
Ni323       O325   1.901       .  S
O324       Ni329   1.938   1_545  S
C326        C545   1.477       .  S
C326        O327   1.263       .  A
O331       Ni337   1.942       .  S
O331        C352   1.275       .  A
O332       Ni355   1.889       .  S
O332        C341   1.265       .  A
O333       Ni337   1.923       .  S
O333       Ni355   1.900   1_565  S
O333       Ni349   1.911       .  S
O333        H356   0.963       .  S
C334        C422   1.477       .  S
C334        O351   1.265       .  A
C334        O343   1.275       .  A
O335       Ni354   1.937       .  S
O335        C341   1.274       .  A
O336       Ni354   1.916       .  S
O336        C338   1.274       .  A
Ni337       O342   1.911       .  S
C338        C432   1.486       .  S
C338        O348   1.274       .  A
O339       Ni355   1.897   1_565  S
O340        C345   1.276       .  A
C341        C532   1.487       .  S
O342        C344   1.273       .  A
O343       Ni354   1.943       .  S
C344        C505   1.486       .  S
C344        O350   1.275       .  A
C345        C475   1.484       .  S
H346        O347   0.967       .  S
O347       Ni355   1.910       .  S
O347       Ni349   1.896   1_545  S
O347       Ni354   1.924       .  S
O348       Ni349   1.928   1_545  S
Ni349       O353   1.892       .  S
Ni349       O351   1.893   1_565  S
O350       Ni355   1.931   1_565  S
C352        C415   1.485       .  S
C352        O353   1.264       .  A
C357        N358   1.358       .  A
C357        N362   1.358       .  A
C357        C402   1.466       .  S
N358        C359   1.356       .  A
C359        N360   1.356       .  A
C359        C465   1.469       .  S
N360        C361   1.355       .  A
C361        N362   1.355       .  A
C361        C425   1.470       .  S
C363        N364   1.354       .  A
C363        N368   1.356       .  A
C363        C392   1.469       .  S
C365        N366   1.360       .  A
C365        C455   1.490       .  S
N366        C367   1.362       .  A
C367        C435   1.480       .  S
C369        N370   1.358       .  A
C369        N374   1.353       .  A
C369        C395   1.469       .  S
N370        C371   1.359       .  A
C371        N372   1.359       .  A
C371        C382   1.467       .  S
N372        C373   1.357       .  A
C373        N374   1.351       .  A
C373        C405   1.471       .  S
C375        N376   1.359       .  A
C375        N380   1.361       .  A
C375        C385   1.481       .  S
N376        C377   1.356       .  A
C377        N378   1.356       .  A
C377        C445   1.479       .  S
N378        C379   1.357       .  A
C379        N380   1.360       .  A
C379        C412   1.492       .  S
C381        C382   1.401       .  A
C381        C386   1.396       .  A
C381        F388   1.358       .  S
C382        C383   1.402       .  A
C384        C385   1.410       .  A
C384        F389   1.358       .  S
C386        F387   1.357       .  S
C391        C392   1.404       .  A
C391        C396   1.392       .  A
C391        F398   1.358       .  S
C392        C393   1.407       .  A
C393        C394   1.398       .  A
C393        F400   1.358   1_655  S
C394        C395   1.404       .  A
C394        F399   1.358       .  S
C395        C396   1.406       .  A
C396        F397   1.358       .  S
C401        C402   1.403       .  A
C401        C406   1.395       .  A
C401        F408   1.358       .  S
C402        C403   1.405       .  A
C403        C404   1.396       .  A
C403        F410   1.358       .  S
C404        C405   1.404       .  A
C404        F409   1.358       .  S
C405        C406   1.408       .  A
C406        F407   1.358       .  S
C411        C412   1.412       .  A
C411        C416   1.402       .  A
C411        F418   1.357       .  S
C412        C413   1.412       .  A
C413        C414   1.397       .  A
C413        F420   1.358       .  S
C414        C415   1.408       .  A
C414        F419   1.358       .  S
C415        C416   1.406       .  A
C416        F417   1.357       .  S
C421        C422   1.409       .  A
C421        C426   1.393       .  A
C421        F428   1.357   1_545  S
C422        C423   1.407       .  A
C423        C424   1.400       .  A
C423        F430   1.358       .  S
C424        C425   1.406       .  A
C424        F429   1.358       .  S
C425        C426   1.402       .  A
C426        F427   1.358       .  S
C431        C432   1.412       .  A
C431        C436   1.393       .  A
C431        F438   1.358   1_545  S
C432        C433   1.409       .  A
C434        F439   1.358       .  S
C435        C436   1.403       .  A
C436        F437   1.358       .  S
C441        C442   1.410       .  A
C441        C446   1.398       .  A
C441        F448   1.358       .  S
C442        C443   1.411       .  A
C443        C444   1.396       .  A
C443        F450   1.359       .  S
C444        C445   1.405       .  A
C444        F449   1.358       .  S
C445        C446   1.407       .  A
C446        F447   1.357       .  S
C451        C452   1.406       .  A
C451        C456   1.397       .  A
C451        F458   1.358       .  S
C452        C453   1.413       .  A
C453        C454   1.399       .  A
C453        F460   1.358   1_545  S
C454        C455   1.409       .  A
C455        C456   1.413       .  A
C456        F457   1.358       .  S
C461        C462   1.403       .  A
C461        C466   1.401       .  A
C461        F468   1.357       .  S
C462        C463   1.405       .  A
C463        C464   1.390       .  A
C463        F470   1.359       .  S
C464        C465   1.404       .  A
C464        F469   1.359       .  S
C465        C466   1.407       .  A
C466        F467   1.358       .  S
C471        C472   1.405       .  A
C471        C476   1.399       .  A
C471        F478   1.358       .  S
C472        C473   1.402       .  A
C473        C474   1.398       .  A
C473        F480   1.358       .  S
C474        C475   1.412       .  A
C474        F479   1.357   1_565  S
C475        C476   1.409       .  A
C476        F477   1.358       .  S
C481        C482   1.417       .  A
C481        C486   1.402       .  A
C481        F488   1.358       .  S
C482        C483   1.412       .  A
C483        C484   1.396       .  A
C483        F490   1.358       .  S
C484        C485   1.400       .  A
C485        C486   1.399       .  A
C486        F487   1.358       .  S
C491        C492   1.406       .  A
C491        C496   1.397       .  A
C491        F498   1.358       .  S
C492        C493   1.404       .  A
C493        C494   1.395       .  A
C493        F500   1.358       .  S
C494        C495   1.405       .  A
C494        F499   1.358       .  S
C495        C496   1.403       .  A
C496        F497   1.358       .  S
C501        C502   1.408       .  A
C501        C506   1.399       .  A
C501        F508   1.358       .  S
C502        C503   1.402       .  A
C503        C504   1.394       .  A
C503        F510   1.358       .  S
C504        C505   1.413       .  A
C504        F509   1.358       .  S
C505        C506   1.410       .  A
C506        F507   1.358       .  S
C511        C512   1.407       .  A
C511        C516   1.395       .  A
C511        F518   1.358       .  S
C512        C513   1.406       .  A
C513        C514   1.398       .  A
C513        F520   1.358       .  S
C514        C515   1.413       .  A
C514        F519   1.358       .  S
C515        C516   1.410       .  A
C516        F517   1.358       .  S
C521        C522   1.409       .  A
C521        C526   1.395       .  A
C521        F528   1.358       .  S
C522        C523   1.407       .  A
C523        C524   1.393       .  A
C523        F530   1.358       .  S
C524        C525   1.401       .  A
C524        F529   1.358       .  S
C525        C526   1.401       .  A
C526        F527   1.358       .  S
C531        C532   1.410       .  A
C531        C536   1.394       .  A
C531        F538   1.358       .  S
C532        C533   1.408       .  A
C533        C534   1.400       .  A
C533        F540   1.358       .  S
C534        C535   1.411       .  A
C534        F539   1.357       .  S
C535        C536   1.412       .  A
C536        F537   1.358       .  S
C541        C542   1.407       .  A
C541        C546   1.398       .  A
C541        F548   1.358       .  S
C542        C543   1.405       .  A
C543        C544   1.391       .  A
C543        F550   1.358       .  S
C544        C545   1.408       .  A
C544        F549   1.359       .  S
C545        C546   1.410       .  A
C546        F547   1.358       .  S
C551        C552   1.403       .  A
C551        C556   1.397       .  A
C551        F558   1.358       .  S
C552        C553   1.404       .  A
C553        C554   1.395       .  A
C553        F560   1.358       .  S
C554        C555   1.405       .  A
C554        F559   1.358       .  S
C555        C556   1.408       .  A
C556        F557   1.358       .  S
