geometry optimzed in LAMMPS
_audit_creation_date              2020-12-01 
_audit_creation_method            'lammps2cif' 
_symmetry_space_group_name_H-M    'P1' 
_symmetry_Int_Tables_number       1 
_symmetry_cell_setting            triclinic 
loop_ 
_symmetry_equiv_pos_as_xyz 
  x,y,z 
_cell_length_a                    29.21440262 
_cell_length_b                    31.846575112223615 
_cell_length_c                    46.74841815623834 
_cell_angle_alpha                 90.0369019459635 
_cell_angle_beta                  89.95727898889967 
_cell_angle_gamma                 122.6220617114731 
loop_ 
_atom_site_label 
_atom_site_type_symbol 
_atom_site_fract_x 
_atom_site_fract_y 
_atom_site_fract_z 
_atom_site_charge 
C1          C  0.15496360  0.32213725  0.37437712     0.80200
N2          N  0.14381567  0.29675141  0.39956408    -0.78100
C3          C  0.12281526  0.24695041  0.39935404     0.82700
N4          N  0.11394276  0.22316618  0.37401175    -0.78000
C5          C  0.12532953  0.24731969  0.34873605     0.82800
N6          N  0.14647756  0.29722317  0.34890562    -0.79800
C7          C  0.16677958  0.94610245  0.37390945     0.80200
N8          N  0.16018372  0.96383034  0.39937036    -0.78100
C9          C  0.13860220  0.99250580  0.39955211     0.82700
N10         N  0.12603847  0.00451063  0.37428329    -0.78000
C11         C  0.13425073  0.98921313  0.34884373     0.82800
N12         N  0.15512019  0.95999718  0.34861536    -0.79800
C13         C  0.45872535  0.77833556  0.38014027     0.80200
N14         N  0.43115961  0.80168970  0.37738987    -0.78100
C15         C  0.37635160  0.77521278  0.37549679     0.82700
N16         N  0.34906477  0.72455651  0.37642449    -0.78000
C17         C  0.37583762  0.70023542  0.37840724     0.82800
N18         N  0.43096304  0.72762151  0.38025406    -0.79800
C19         C  0.86904301  0.98343307  0.37429037     0.80200
N20         N  0.89744554  0.99637821  0.39959297    -0.78100
C21         C  0.95255954  0.02353963  0.39938062     0.82700
N22         N  0.97868760  0.03775941  0.37422493    -0.78000
C23         C  0.95187932  0.02592902  0.34920431     0.82800
N24         N  0.89669210  0.99864743  0.34900832    -0.79800
Zr25       Zr  0.12216121  0.11583348  0.44526305     2.17500
O26         O  0.18410319  0.14731857  0.40445085    -0.51300
O27         O  0.03766877  0.06910982  0.42004903    -0.74500
O28         O  0.12737481  0.05292002  0.41988405    -0.81300
O29         O  0.12027392  0.23561869  0.45053420    -0.83100
O30         O  0.13917369  0.00481038  0.45099637    -0.78700
O31         O  0.11760774  0.17877164  0.41997184    -0.90300
O32         O  0.96566388  0.02881037  0.45010112    -0.76300
O33         O  0.07452307  0.04843467  0.47406342    -0.85800
O34         O  0.05985088  0.12802209  0.47065911    -0.85500
O35         O  0.18849866  0.11044011  0.47179106    -0.72200
O36         O  0.17745989  0.19110950  0.47178746    -0.84400
Zr37       Zr  0.11870427  0.11455177  0.05287314     2.26400
Zr38       Zr  0.13377979  0.03543771  0.49892232     2.06300
Zr39       Zr  0.11437529  0.20175896  0.49888737     2.10000
Zr40       Zr  0.00798709  0.05285682  0.49707061     1.78800
O41         O  0.19034668  0.29020145  0.00307336    -0.93200
O42         O  0.95111900  0.96218254  0.49901299    -0.41000
O43         O  0.05830600  0.12772376  0.02577652    -0.77600
O44         O  0.05907021  0.04181755  0.02541534    -0.96300
O45         O  0.17740320  0.09835462  0.02725556    -0.89600
O46         O  0.17664983  0.18973030  0.02753827    -0.92400
C47         C  0.98666813  0.04097927  0.42507045     1.01300
C48         C  0.11946366  0.21905951  0.42522985     1.14200
C49         C  0.13477969  0.01762205  0.42544158     1.05000
O50         O  0.07486242  0.94489438  0.49845548    -0.94600
O51         O  0.11097817  0.99054106  0.04646862    -0.90300
O52         O  0.11730993  0.04816784  0.07774243    -0.83500
C53         C  0.11271662  0.00677518  0.07202006     1.11700
O54         O  0.29566244  0.21775343  0.45764725    -0.96600
Zr55       Zr  0.23501471  0.17307371  0.00117197     1.88900
O56         O  0.20419017  0.15500978  0.07753608    -0.73200
O57         O  0.18932228  0.00797084  0.00090458    -0.52500
O58         O  0.29495570  0.14334211  0.01022118    -0.97200
O59         O  0.29928354  0.26293158  0.99813615    -0.54400
O60         O  0.27660079  0.19700451  0.04782521    -0.73700
C61         C  0.25523663  0.18328243  0.07260875     0.98600
O62         O  0.05613154  0.08520364  0.09337757    -0.62600
O63         O  0.03989791  0.21500115  0.49472063    -0.57400
O64         O  0.11712792  0.17849541  0.07869475    -0.94000
O65         O  0.10512480  0.22707656  0.04796515    -0.92500
O66         O  0.93923873  0.07377749  0.49480289    -0.92800
O67         O  0.94077447  0.02588052  0.03754267    -0.91600
C68         C  0.10920055  0.21345418  0.07335890     1.17400
H69         H  0.03587362  0.13251289  0.45754125     0.33400
H70         H  0.03672205  0.01406682  0.03792777     0.44200
H71         H  0.19742452  0.21736918  0.04024535     0.37800
H72         H  0.21279581  0.10713690  0.45882778     0.34200
H73         H  0.91397684  0.95408088  0.49476716     0.26000
H74         H  0.21056643  0.02561533  0.01821909     0.32000
H75         H  0.28165497  0.11430092  0.99737585     0.37900
H76         H  0.95255309  0.10254209  0.50788844     0.32300
H77         H  0.01770722  0.19981411  0.51214561     0.31200
H78         H  0.17333749  0.30686230  0.01184971     0.32900
H79         H  0.29417748  0.27638314  0.01612664     0.31900
H80         H  0.96367418  0.02785957  0.05372027     0.35900
H81         H  0.02975694  0.09471357  0.08886792     0.28600
H82         H  0.21287989  0.14092388  0.40916692     0.32800
H83         H  0.27525944  0.22737126  0.44528593     0.35700
H84         H  0.05708642  0.25134373  0.49744314     0.28300
H85         H  0.03436478  0.04839386  0.09197880     0.41200
H86         H  0.03886806  0.93787229  0.50442818     0.31200
H87         H  0.96151164  0.95077421  0.48194316     0.38800
H88         H  0.28440731  0.27417144  0.98310771     0.30700
H89         H  0.23878039  0.05394247  0.48580790     0.30800
H90         H  0.20303474  0.18406128  0.40523751     0.31000
Zr91       Zr  0.12055421  0.11342749  0.19488354     2.17500
O92         O  0.05632258  0.08294071  0.15515709    -0.51300
O93         O  0.20510010  0.15558646  0.16932459    -0.74500
O94         O  0.12071437  0.17926817  0.16999808    -0.81300
O95         O  0.11232003  0.98961747  0.20005643    -0.83100
O96         O  0.10864503  0.22731085  0.20119327    -0.78700
O97         O  0.11799460  0.04740267  0.16917015    -0.90300
O98         O  0.27802908  0.19638462  0.19876926    -0.76300
O99         O  0.17802133  0.18841566  0.22012641    -0.85800
O100        O  0.18048528  0.09811288  0.22006394    -0.85500
O101        O  0.05986721  0.12545282  0.22248484    -0.72200
O102        O  0.06245403  0.04000357  0.22225400    -0.84400
Zr103      Zr  0.12117419  0.11338426  0.30287966     2.26400
Zr104      Zr  0.11834713  0.20035715  0.24917284     2.06300
Zr105      Zr  0.12356066  0.02594160  0.24867266     2.10000
Zr106      Zr  0.23760573  0.17301615  0.24607312     1.78800
O107        O  0.06026559  0.93600680  0.25108510    -0.93200
O108        O  0.29575754  0.26366822  0.24646282    -0.41000
O109        O  0.18173879  0.10091882  0.27529551    -0.77600
O110        O  0.17956861  0.18653577  0.27551524    -0.96300
O111        O  0.06078452  0.12809989  0.27778315    -0.89600
O112        O  0.06379358  0.03831513  0.27728615    -0.92400
C113        C  0.25627681  0.18364440  0.17396264     1.01300
C114        C  0.11328109  0.00588332  0.17455698     1.14200
C115        C  0.11287691  0.21424900  0.17567333     1.05000
O116        O  0.19088809  0.28803498  0.24650101    -0.94600
O117        O  0.12434881  0.23531272  0.29739022    -0.90300
O118        O  0.11978039  0.17819423  0.32840090    -0.83500
C119        C  0.12274214  0.21901091  0.32288787     1.11700
O120        O  0.94799025  0.02348009  0.20830718    -0.96600
Zr121      Zr  0.00384301  0.05335409  0.25137718     1.88900
O122        O  0.03651761  0.07027806  0.32820868    -0.73200
O123        O  0.04613405  0.21686263  0.25126690    -0.52500
O124        O  0.94200085  0.08262841  0.25086491    -0.97200
O125        O  0.94223184  0.96290819  0.25291791    -0.54400
O126        O  0.96333889  0.03295548  0.29870793    -0.73700
C127        C  0.98528051  0.04398462  0.32349976     0.98600
O128        O  0.18660320  0.14711302  0.34203949    -0.62600
O129        O  0.20173532  0.01792478  0.24582679    -0.57400
O130        O  0.12398626  0.04970898  0.32840416    -0.94000
O131        O  0.13040640  0.99809894  0.29734498    -0.92500
O132        O  0.30508974  0.15062120  0.24230646    -0.92800
O133        O  0.29437509  0.19862707  0.28868217    -0.91600
C134        C  0.12880186  0.01291213  0.32288149     1.17400
H135        H  0.20277862  0.09126780  0.20644263     0.33400
H136        H  0.20200894  0.21458566  0.28810064     0.44200
H137        H  0.04353546  0.01067165  0.29002822     0.37800
H138        H  0.03626703  0.13027540  0.20978257     0.34200
H139        H  0.33150822  0.27115247  0.23965309     0.26400
H140        H  0.02038530  0.19316723  0.26572826     0.32000
H141        H  0.91562445  0.06431777  0.26644867     0.37900
H142        H  0.29608024  0.13085162  0.22447355     0.32300
H143        H  0.22701273  0.04099747  0.26065533     0.31200
H144        H  0.02718941  0.93149524  0.26003651     0.32900
H145        H  0.90674161  0.95721078  0.25878970     0.31900
H146        H  0.28228380  0.16723491  0.29909078     0.35900
H147        H  0.20991245  0.13364691  0.33916548     0.28600
H148        H  0.03349320  0.09685596  0.15830470     0.32800
H149        H  0.90987943  0.00652037  0.21499523     0.35700
H150        H  0.18842609  0.98424729  0.25348046     0.28300
H151        H  0.21098068  0.18307500  0.33770792     0.41200
H152        H  0.17196645  0.30568066  0.24322249     0.31200
H153        H  0.28201235  0.27459632  0.23064111     0.38800
H154        H  0.95408127  0.95194799  0.26958631     0.30700
H155        H  0.06290799  0.25000764  0.26044518     0.30800
H156        H  0.03118922  0.04682509  0.15876046     0.31000
C157        C  0.37182948  0.25059079  0.12238592     0.80200
N158        N  0.34381636  0.23377168  0.09733403    -0.78100
C159        C  0.28919347  0.20088773  0.09798134     0.82700
N160        N  0.26325012  0.18520155  0.12317568    -0.78000
C161        C  0.28972749  0.20138030  0.14810544     0.82800
N162        N  0.34428121  0.23426542  0.14789930    -0.79800
C163        C  0.06663202  0.27529120  0.12518712     0.80200
N164        N  0.08045716  0.26247036  0.15032463    -0.78100
C165        C  0.10615739  0.23751752  0.14996279     0.82700
N166        N  0.11718438  0.22503021  0.12444452    -0.78000
C167        C  0.10364573  0.23672967  0.09934082     0.82800
N168        N  0.07781603  0.26167310  0.09968197    -0.79800
C169        C  0.78055334  0.45064616  0.13194893     0.80200
N170        N  0.81242707  0.50101602  0.13109697    -0.78100
C171        C  0.86757686  0.52509694  0.13042450     0.82700
N172        N  0.89043270  0.49768082  0.13065568    -0.78000
C173        C  0.85914032  0.44677790  0.13129613     0.82800
N174        N  0.80431258  0.42369716  0.13184441    -0.79800
C175        C  0.07411776  0.90191591  0.12243968     0.80200
N176        N  0.08508033  0.92749661  0.09729120    -0.78100
C177        C  0.10779403  0.97761788  0.09769791     0.82700
N178        N  0.11858341  0.00138218  0.12317544    -0.78000
C179        C  0.10794770  0.97711387  0.14839378     0.82800
N180        N  0.08533882  0.92708219  0.14801386    -0.79800
C181        C  0.99560823  0.76325617  0.10112223    -0.14400
C182        C  0.98912709  0.74128190  0.12771350     0.16000
C183        C  0.01386182  0.77220391  0.15169707     0.02300
C184        C  0.04190499  0.82378680  0.14893645    -0.12900
C185        C  0.04660438  0.84653504  0.12259172    -0.03900
C186        C  0.02315348  0.81503558  0.09823384     0.01500
C187        C  0.95818055  0.68637405  0.12924539     0.08400
N188        N  0.01026380  0.75290554  0.17955260     0.64700
H189        H  0.05948065  0.84597833  0.16809541     0.17700
N190        N  0.02410686  0.83315905  0.07032418     0.75200
H191        H  0.97783878  0.73986525  0.08235685     0.09200
C192        C  0.90128715  0.65716098  0.13222876     0.02900
C193        C  0.87392705  0.60545685  0.13289187    -0.05900
C194        C  0.90123430  0.58073495  0.12963539    -0.24200
C195        C  0.95852383  0.61046190  0.12549970     0.12100
C196        C  0.98592461  0.66252188  0.12525502    -0.13400
N197        N  0.86942343  0.67840214  0.13480096     0.63800
H198        H  0.83034361  0.58478007  0.13598160     0.11600
N199        N  0.99076399  0.59001895  0.12088644     0.60400
H200        H  0.02950146  0.68456180  0.12176083     0.07800
O201        O  0.98023206  0.82701263  0.06120200    -0.41000
O202        O  0.05568893  0.83198774  0.05237958    -0.40200
O203        O  0.05219520  0.75586018  0.18927167    -0.40200
O204        O  0.97893092  0.75550304  0.19701672    -0.37900
O205        O  0.00582727  0.59031009  0.09554119    -0.38800
O206        O  0.02197962  0.59449237  0.14094945    -0.35000
O207        O  0.84150484  0.67526648  0.11335849    -0.36400
O208        O  0.85133063  0.67812916  0.15935202    -0.40700
C209        C  0.98567829  0.33430452  0.10511838    -0.14400
C210        C  0.97414459  0.34466089  0.13205463     0.16000
C211        C  0.99114848  0.33048128  0.15633036     0.02300
C212        C  0.02150595  0.30888895  0.15320705    -0.12900
C213        C  0.03506003  0.29967960  0.12621254    -0.03900
C214        C  0.01619119  0.31274811  0.10181261     0.01500
C215        C  0.94472153  0.37038238  0.13354512     0.08400
N216        N  0.97970243  0.33831279  0.18466131     0.64700
H217        H  0.03452565  0.29947328  0.17251977     0.17700
N218        N  0.02764806  0.30611020  0.07322021     0.75200
H219        H  0.97188413  0.34418024  0.08624761     0.09200
C220        C  0.97179162  0.42259103  0.13205078     0.02900
C221        C  0.94259272  0.44543131  0.13147910    -0.05900
C222        C  0.88581574  0.41782816  0.13155155    -0.24200
C223        C  0.85845257  0.36480791  0.13188486     0.12100
C224        C  0.88822612  0.34205481  0.13279804    -0.13400
N225        N  0.02930946  0.45422113  0.13116527     0.63800
H226        H  0.96563366  0.48578081  0.13087464     0.11600
N227        N  0.80093607  0.33225463  0.13117689     0.60400
H228        H  0.86683610  0.30169667  0.13271003     0.07800
O229        O  0.06163794  0.34491371  0.05963851    -0.41000
O230        O  0.98938370  0.27050308  0.05930493    -0.40200
O231        O  0.94519941  0.30031165  0.19865692    -0.40200
O232        O  0.01802468  0.37443753  0.19823302    -0.37900
O233        O  0.78016643  0.30914091  0.10808775    -0.38800
O234        O  0.77779524  0.31082643  0.15428736    -0.35000
O235        O  0.05064228  0.47411660  0.10745189    -0.36400
O236        O  0.05260960  0.47797337  0.15370730    -0.40700
C237        C  0.63446135  0.42033316  0.13509893    -0.14400
C238        C  0.60584345  0.37015045  0.12801257     0.16000
C239        C  0.63462774  0.34722524  0.12195694     0.02300
C240        C  0.69094050  0.37433988  0.12379267    -0.12900
C241        C  0.72040812  0.42469032  0.13136212    -0.03900
C242        C  0.69099770  0.44764383  0.13731598     0.01500
C243        C  0.54633433  0.34303183  0.12675064     0.08400
N244        N  0.60814234  0.29570351  0.11534416     0.64700
H245        H  0.71145243  0.35513245  0.11920007     0.17700
N246        N  0.71594481  0.49759280  0.14705209     0.75200
H247        H  0.61261503  0.43835958  0.13965011     0.09200
C248        C  0.51374962  0.32623539  0.15144874     0.02900
C249        C  0.45761884  0.29744954  0.14908487    -0.05900
C250        C  0.43190185  0.28539887  0.12246394    -0.24200
C251        C  0.46509858  0.30595520  0.09763110     0.12100
C252        C  0.52164183  0.33442931  0.10017617    -0.13400
N253        N  0.53592091  0.33553431  0.17946233     0.63800
H254        H  0.43437175  0.28357813  0.16870180     0.11600
N255        N  0.44396181  0.29898649  0.06943435     0.60400
H256        H  0.54650520  0.34914652  0.08107865     0.07800
O257        O  0.71061799  0.50368995  0.17324848    -0.41000
O258        O  0.71848686  0.52889325  0.12952361    -0.40200
O259        O  0.61252893  0.28430631  0.09007757    -0.40200
O260        O  0.60387917  0.26719059  0.13532279    -0.37900
O261        O  0.44559012  0.33566299  0.05799846    -0.38800
O262        O  0.44891148  0.26978136  0.05338800    -0.35000
O263        O  0.53255946  0.36673061  0.19446834    -0.36400
O264        O  0.53442196  0.29978447  0.19204280    -0.40700
C265        C  0.71798638  0.90755587  0.35336235    -0.14400
C266        C  0.69377680  0.90390154  0.37962010     0.16000
C267        C  0.72754655  0.92432598  0.40398554     0.02300
C268        C  0.78376686  0.95010081  0.40120952    -0.12900
C269        C  0.80857121  0.95485134  0.37484296    -0.03900
C270        C  0.77436987  0.93232746  0.35061461     0.01500
C271        C  0.63362846  0.87388786  0.38091638     0.08400
N272        N  0.70694415  0.92110668  0.43199726     0.64700
H273        H  0.80797737  0.96660588  0.42032323     0.17700
N274        N  0.79427456  0.93175987  0.32296706     0.75200
H275        H  0.69269550  0.88989842  0.33469031     0.09200
C276        C  0.60057798  0.88574183  0.36527530     0.02900
C277        C  0.54426768  0.85380569  0.36569010    -0.05900
C278        C  0.51888440  0.80903085  0.38082156    -0.24200
C279        C  0.55211818  0.79668313  0.39595124     0.12100
C280        C  0.60861000  0.82897248  0.39569837    -0.13400
N281        N  0.62217984  0.93036085  0.34913688     0.63800
H282        H  0.52028712  0.86434123  0.35361290     0.11600
N283        N  0.53087409  0.75296085  0.41279280     0.60400
H284        H  0.63326242  0.81846074  0.40710831     0.07800
O285        O  0.79240537  0.95925609  0.30419769    -0.41000
O286        O  0.78834795  0.89126786  0.31491774    -0.40200
O287        O  0.70953725  0.89207110  0.44932949    -0.40200
O288        O  0.71156397  0.96007676  0.44190851    -0.37900
O289        O  0.53733821  0.71947021  0.40319949    -0.38800
O290        O  0.53175937  0.75843416  0.43956886    -0.35000
O291        O  0.62317046  0.92673856  0.32228949    -0.36400
O292        O  0.61559999  0.96350890  0.35924238    -0.40700
C293        C  0.20420108  0.84916854  0.36255566    -0.14400
C294        C  0.25611837  0.87360821  0.37434305     0.16000
C295        C  0.27909398  0.92329428  0.38423354     0.02300
C296        C  0.24815640  0.94476585  0.38458423    -0.12900
C297        C  0.19568227  0.91965868  0.37355971    -0.03900
C298        C  0.17426734  0.87168389  0.36172856     0.01500
C299        C  0.28562606  0.84730047  0.37448975     0.08400
N300        N  0.33353827  0.95354830  0.39419176     0.64700
H301        H  0.26612018  0.98223866  0.39295651     0.17700
N302        N  0.12181850  0.84378574  0.34921242     0.75200
H303        H  0.18664547  0.81218215  0.35356891     0.09200
C304        C  0.26479043  0.79978880  0.38717470     0.02900
C305        C  0.29518727  0.77774869  0.38691430    -0.05900
C306        C  0.34607112  0.80086141  0.37385147    -0.24200
C307        C  0.36569490  0.84736669  0.36011600     0.12100
C308        C  0.33521819  0.86938977  0.36033392    -0.13400
N309        N  0.21410178  0.77330972  0.40177755     0.63800
H310        H  0.27892184  0.74235680  0.39775469     0.11600
N311        N  0.41556422  0.87317294  0.34486309     0.60400
H312        H  0.35075312  0.90437093  0.34915599     0.07800
O313        O  0.08522107  0.80731279  0.36338178    -0.41000
O314        O  0.11964697  0.84078989  0.32227949    -0.40200
O315        O  0.36716987  0.98829618  0.37794127    -0.40200
O316        O  0.34026452  0.96032633  0.42083620    -0.37900
O317        O  0.41271006  0.87115911  0.31791347    -0.38800
O318        O  0.45415342  0.91232091  0.35622534    -0.35000
O319        O  0.17615670  0.73423547  0.38998491    -0.36400
O320        O  0.21567903  0.77479260  0.42874894    -0.40700
C321        C  0.33306054  0.56222411  0.37714027    -0.14400
C322        C  0.27739427  0.53856596  0.37297808     0.16000
C323        C  0.25471100  0.56797368  0.37205666     0.02300
C324        C  0.28782448  0.61969119  0.37410961    -0.12900
C325        C  0.34416301  0.64433824  0.37747383    -0.03900
C326        C  0.36663194  0.61423155  0.37909937     0.01500
C327        C  0.24410659  0.48338271  0.37231014     0.08400
N328        N  0.19831662  0.54714206  0.36772830     0.64700
H329        H  0.26837080  0.64050579  0.37262793     0.17700
N330        N  0.42296180  0.63403814  0.38269283     0.75200
H331        H  0.35094045  0.54003470  0.37886812     0.09200
C332        C  0.24411804  0.45499742  0.34910352     0.02900
C333        C  0.21341512  0.40309727  0.35026847    -0.05900
C334        C  0.18331457  0.37755022  0.37452627    -0.24200
C335        C  0.18443484  0.40636833  0.39812359     0.12100
C336        C  0.21461251  0.45844566  0.39666117    -0.13400
N337        N  0.27406494  0.47715784  0.32361868     0.63800
H338        H  0.21455383  0.38286173  0.33191952     0.11600
N339        N  0.15509669  0.38489521  0.42387814     0.60400
H340        H  0.21526233  0.47968197  0.41498136     0.07800
O341        O  0.44832993  0.63284626  0.36115604    -0.41000
O342        O  0.43788998  0.62899378  0.40708174    -0.40200
O343        O  0.17096727  0.54597175  0.38896799    -0.40200
O344        O  0.18401023  0.55221712  0.34317609    -0.37900
O345        O  0.18225896  0.38729788  0.44549676    -0.38800
O346        O  0.11332511  0.38647272  0.42790577    -0.35000
O347        O  0.31679244  0.47701528  0.31998091    -0.36400
O348        O  0.24722030  0.47442694  0.30178789    -0.40700
C349        C  0.14661773  0.32105196  0.87368912     0.80200
N350        N  0.13911020  0.29732547  0.89926630    -0.78100
C351        C  0.12048872  0.24791844  0.89961026     0.82700
N352        N  0.11062784  0.22324967  0.87448182    -0.78000
C353        C  0.11863884  0.24597163  0.84894998     0.82800
N354        N  0.13707762  0.29515737  0.84857533    -0.79800
C355        C  0.17013464  0.95050854  0.87309915     0.80200
N356        N  0.15909972  0.96492170  0.89868651    -0.78100
C357        C  0.13817392  0.99415136  0.89882185     0.82700
N358        N  0.12917602  0.00884063  0.87353777    -0.78000
C359        C  0.13993612  0.99542048  0.84820646     0.82800
N360        N  0.16077847  0.96636931  0.84795597    -0.79800
C361        C  0.45312538  0.77410777  0.87042867     0.80200
N362        N  0.42685250  0.79892066  0.86972208    -0.78100
C363        C  0.37195174  0.77356551  0.86810775     0.82700
N364        N  0.34373415  0.72293635  0.86696875    -0.78000
C365        C  0.36925745  0.69758593  0.86700188     0.82800
N366        N  0.42416120  0.72351515  0.86888239    -0.79800
C367        C  0.86455736  0.97882404  0.87240246     0.80200
N368        N  0.89204502  0.99460050  0.89805693    -0.78100
C369        C  0.94730723  0.02466777  0.89830657     0.82700
N370        N  0.97413509  0.03856165  0.87333536    -0.78000
C371        C  0.94826040  0.02384007  0.84806566     0.82800
N372        N  0.89324339  0.99383234  0.84742031    -0.79800
Zr373      Zr  0.11815140  0.11538728  0.94467051     2.17500
O374        O  0.18291873  0.15313605  0.90534194    -0.51300
O375        O  0.03269506  0.06925798  0.91947675    -0.74500
O376        O  0.12565704  0.05352824  0.91944487    -0.81300
O377        O  0.12193938  0.23776254  0.95107102    -0.83100
O378        O  0.13061555  0.00087276  0.95028267    -0.78700
O379        O  0.11573681  0.17989494  0.92001115    -0.90300
O380        O  0.95971647  0.03424349  0.94912809    -0.76300
O381        O  0.05997956  0.04025794  0.96972745    -0.85800
O382        O  0.05903476  0.13105989  0.97051399    -0.85500
O383        O  0.17817802  0.10186417  0.97193282    -0.72200
O384        O  0.17721198  0.18815359  0.97237460    -0.84400
Zr385      Zr  0.12493304  0.11938990  0.55290080     2.26400
Zr386      Zr  0.11892373  0.02677159  0.99838286     2.06300
Zr387      Zr  0.11698183  0.20286929  0.99931261     2.10000
Zr388      Zr  0.00132615  0.05627294  0.99632768     1.78800
O389        O  0.18303391  0.29066066  0.50168534    -0.93200
O390        O  0.94005772  0.96590762  0.99485194    -0.41000
O391        O  0.05993236  0.12628233  0.52590026    -0.77600
O392        O  0.06969165  0.04421323  0.52623175    -0.96300
O393        O  0.18826470  0.10863963  0.52745131    -0.89600
O394        O  0.17829731  0.19503367  0.52718220    -0.92400
C395        C  0.98126286  0.04348032  0.92421488     1.01300
C396        C  0.11908550  0.22079240  0.92557321     1.14200
C397        C  0.13088660  0.01682787  0.92483959     1.05000
O398        O  0.04466237  0.93983883  0.99475803    -0.94600
O399        O  0.12916850  0.00227442  0.54730298    -0.90300
O400        O  0.13435084  0.05952093  0.57849936    -0.83500
C401        C  0.13163230  0.01899204  0.57276647     1.11700
O402        O  0.29335851  0.19169599  0.95962673    -0.96600
Zr403      Zr  0.24068213  0.18378171  0.50074835     1.88900
O404        O  0.20902544  0.16751415  0.57810140    -0.73200
O405        O  0.21552970  0.03283794  0.50180804    -0.52500
O406        O  0.30823032  0.16137633  0.49866792    -0.97200
O407        O  0.29957268  0.27453918  0.50187949    -0.54400
O408        O  0.28170508  0.20470603  0.54826515    -0.73700
C409        C  0.26011469  0.19429733  0.57321663     0.98600
O410        O  0.06281803  0.08391090  0.59345935    -0.62600
O411        O  0.04679713  0.22191581  0.99591598    -0.57400
O412        O  0.11423560  0.17905151  0.57810335    -0.94000
O413        O  0.10256896  0.22753858  0.54716058    -0.92500
O414        O  0.94047036  0.08653069  0.99685742    -0.92800
O415        O  0.95197627  0.02666314  0.54010115    -0.91600
C416        C  0.10564469  0.21359513  0.57266240     1.17400
H417        H  0.03675783  0.13789262  0.95741781     0.33400
H418        H  0.04909436  0.01587172  0.53902212     0.44200
H419        H  0.19740316  0.22320923  0.53973950     0.37800
H420        H  0.20144435  0.09707945  0.95937086     0.34200
H421        H  0.95090310  0.95542882  0.97752771     0.26000
H422        H  0.20349430  0.99844380  0.49605576     0.32000
H423        H  0.33881826  0.18664136  0.51056647     0.37900
H424        H  0.94155367  0.09846212  0.97716593     0.32300
H425        H  0.01571586  0.19499210  0.00681938     0.31200
H426        H  0.16261093  0.30710737  0.49926888     0.32900
H427        H  0.29775137  0.28427702  0.52175588     0.31900
H428        H  0.96760477  0.01284138  0.55293602     0.35900
H429        H  0.03426424  0.09098200  0.58968415     0.28600
H430        H  0.20697864  0.14028979  0.90715360     0.32800
H431        H  0.28429981  0.21068642  0.94660954     0.35700
H432        H  0.06016224  0.25221554  0.00770596     0.28300
H433        H  0.04367196  0.04729499  0.59121266     0.41200
H434        H  0.06222041  0.92073347  0.99691603     0.31200
H435        H  0.95155129  0.95346329  0.01093784     0.38800
H436        H  0.28003136  0.28627338  0.49047701     0.30700
H437        H  0.16977055  0.97218507  0.00601393     0.30800
H438        H  0.20675653  0.18886758  0.91045451     0.31000
Zr439      Zr  0.12274177  0.11734201  0.69501501     2.17500
O440        O  0.05954776  0.08345056  0.65488694    -0.51300
O441        O  0.20767739  0.16510347  0.67000022    -0.74500
O442        O  0.11582929  0.17922917  0.66981846    -0.81300
O443        O  0.12282349  0.99725162  0.70027456    -0.83100
O444        O  0.10470724  0.22787419  0.70100076    -0.78700
O445        O  0.12864380  0.05525780  0.66954003    -0.90300
O446        O  0.27963898  0.20444531  0.70016774    -0.76300
O447        O  0.17715672  0.19252761  0.72072535    -0.85800
O448        O  0.18382955  0.10446174  0.72103245    -0.85500
O449        O  0.05886071  0.12562596  0.72222661    -0.72200
O450        O  0.06554100  0.04274349  0.72161444    -0.84400
Zr451      Zr  0.11904088  0.11475537  0.80310823     2.26400
Zr452      Zr  0.11428081  0.20077376  0.74931663     2.06300
Zr453      Zr  0.12735520  0.03087139  0.74882998     2.10000
Zr454      Zr  0.23785097  0.17949600  0.74738915     1.78800
O455        O  0.05385086  0.94363277  0.75240922    -0.93200
O456        O  0.28919835  0.27024674  0.75028488    -0.41000
O457        O  0.18278800  0.10612891  0.77588720    -0.77600
O458        O  0.17653294  0.18919371  0.77654044    -0.96300
O459        O  0.05768600  0.12734045  0.77739055    -0.89600
O460        O  0.06481679  0.03959218  0.77724120    -0.92400
C461        C  0.25870658  0.19331728  0.67506973     1.01300
C462        C  0.12566499  0.01445915  0.67485964     1.14200
C463        C  0.10783686  0.21415153  0.67540764     1.05000
O464        O  0.18430317  0.28933826  0.74764942    -0.94600
O465        O  0.11767986  0.23410270  0.79768122    -0.90300
O466        O  0.11477198  0.17775069  0.82869942    -0.83500
C467        C  0.11636105  0.21786283  0.82316996     1.11700
O468        O  0.94636029  0.02119238  0.70834864    -0.96600
Zr469      Zr  0.00398097  0.05241237  0.75064975     1.88900
O470        O  0.03347367  0.06952247  0.82765684    -0.73200
O471        O  0.04002886  0.21432651  0.75302522    -0.52500
O472        O  0.93773373  0.07644245  0.75015995    -0.97200
O473        O  0.94644717  0.96159628  0.75150620    -0.54400
O474        O  0.96142796  0.03013301  0.79754915    -0.73700
C475        C  0.98245890  0.04190718  0.82255821     0.98600
O476        O  0.17946492  0.14492777  0.84448410    -0.62600
O477        O  0.19722882  0.01126752  0.74703335    -0.57400
O478        O  0.12424298  0.05215626  0.82792013    -0.94000
O479        O  0.13961863  0.00599217  0.79696329    -0.92500
O480        O  0.31001728  0.16325871  0.74314271    -0.92800
O481        O  0.29640670  0.20161397  0.78916483    -0.91600
C482        C  0.13411438  0.01853139  0.82238564     1.17400
H483        H  0.20786635  0.09927660  0.70780007     0.33400
H484        H  0.19732678  0.21693611  0.78953328     0.44200
H485        H  0.04505019  0.01152749  0.78982000     0.37800
H486        H  0.03466337  0.12952599  0.70932057     0.34200
H487        H  0.28596023  0.27813457  0.77039255     0.26400
H488        H  0.05732796  0.25062662  0.75010386     0.32000
H489        H  0.94758261  0.09918610  0.76669987     0.37900
H490        H  0.29382227  0.12899099  0.75061392     0.32300
H491        H  0.17741427  0.97531568  0.74224719     0.31200
H492        H  0.07185857  0.92487606  0.75057373     0.32900
H493        H  0.95567830  0.95145691  0.76951658     0.31900
H494        H  0.27921513  0.21080823  0.80403808     0.35900
H495        H  0.20655120  0.13595736  0.84074905     0.28600
H496        H  0.03176481  0.09133651  0.65914212     0.32800
H497        H  0.96501137  0.01071480  0.69522517     0.35700
H498        H  0.21875550  0.02835455  0.72969218     0.28300
H499        H  0.20080977  0.18171885  0.84293984     0.41200
H500        H  0.16409095  0.30620419  0.74831458     0.31200
H501        H  0.32764717  0.28063569  0.74827571     0.38800
H502        H  0.96117520  0.95053990  0.73626081     0.30700
H503        H  0.01787615  0.19882985  0.73562551     0.30800
H504        H  0.03965286  0.04676904  0.65698000     0.31000
C505        C  0.37633098  0.25600696  0.62404290     0.80200
N506        N  0.34865050  0.24125487  0.59877167    -0.78100
C507        C  0.29354381  0.21266063  0.59899223     0.82700
N508        N  0.26681272  0.19896651  0.62411290    -0.78000
C509        C  0.29294650  0.21243051  0.64930913     0.82800
N510        N  0.34812233  0.24100402  0.64944915    -0.79800
C511        C  0.06505639  0.27793746  0.62427132     0.80200
N512        N  0.07751697  0.26424477  0.64958663    -0.78100
C513        C  0.10058243  0.23692265  0.64943902     0.82700
N514        N  0.11064495  0.22340476  0.62396736    -0.78000
C515        C  0.09887022  0.23628459  0.59870203     0.82800
N516        N  0.07569680  0.26360883  0.59880410    -0.79800
C517        C  0.78741025  0.46032044  0.62718566     0.80200
N518        N  0.81774179  0.51054973  0.62417901    -0.78100
C519        C  0.87313002  0.53606559  0.62369015     0.82700
N520        N  0.89776311  0.51037297  0.62635845    -0.78000
C521        C  0.86806274  0.45974523  0.62915834     0.82800
N522        N  0.81312793  0.43525613  0.62956221    -0.79800
C523        C  0.08904060  0.91287586  0.62178955     0.80200
N524        N  0.10282646  0.93975780  0.59712250    -0.78100
C525        C  0.12767519  0.99000010  0.59813874     0.82700
N526        N  0.13772542  0.01291322  0.62386380    -0.78000
C527        C  0.12403358  0.98726129  0.64874140     0.82800
N528        N  0.09914555  0.93693584  0.64767031    -0.79800
C529        C  0.00778342  0.77623234  0.59676487    -0.14400
C530        C  0.99111978  0.75183973  0.62292849     0.16000
C531        C  0.00980744  0.78036143  0.64819160     0.02300
C532        C  0.04175237  0.83209897  0.64686567    -0.12900
C533        C  0.05739393  0.85735507  0.62075899    -0.03900
C534        C  0.04019012  0.82819541  0.59523940     0.01500
C535        C  0.96020706  0.69692426  0.62282202     0.08400
N536        N  0.99760845  0.75849340  0.67582992     0.64700
H537        H  0.05419551  0.85237895  0.66690846     0.17700
N538        N  0.05460503  0.84895141  0.56728265     0.75200
H539        H  0.99565864  0.75462585  0.57714435     0.09200
C540        C  0.90308709  0.66684324  0.62380737     0.02900
C541        C  0.87668866  0.61518780  0.62390296    -0.05900
C542        C  0.90533410  0.59156249  0.62169621    -0.24200
C543        C  0.96277711  0.62228878  0.61832181     0.12100
C544        C  0.98914121  0.67415434  0.61913963    -0.13400
N545        N  0.86996103  0.68695376  0.62455305     0.63800
H546        H  0.83283243  0.59367462  0.62586990     0.11600
N547        N  0.99623154  0.60324570  0.61315724     0.60400
H548        H  0.03297021  0.69697707  0.61670801     0.07800
O549        O  0.01739865  0.84676332  0.55234597    -0.41000
O550        O  0.09101271  0.84623782  0.55451999    -0.40200
O551        O  0.03544457  0.75873658  0.68900569    -0.40200
O552        O  0.96315102  0.76163018  0.69034662    -0.37900
O553        O  0.01333315  0.60678653  0.58791143    -0.38800
O554        O  0.02656488  0.60651326  0.63338675    -0.35000
O555        O  0.84412482  0.68315724  0.60204565    -0.36400
O556        O  0.84871999  0.68580299  0.64827157    -0.40700
C557        C  0.98485707  0.33816067  0.60518473    -0.14400
C558        C  0.98870301  0.36253631  0.63073032     0.16000
C559        C  0.01606006  0.35730494  0.65388447     0.02300
C560        C  0.04128260  0.33086120  0.65065453    -0.12900
C561        C  0.03838040  0.30684339  0.62504926    -0.03900
C562        C  0.00870909  0.31034502  0.60207220     0.01500
C563        C  0.95849484  0.38782412  0.63287492     0.08400
N564        N  0.01708887  0.37604333  0.68158160     0.64700
H565        H  0.06266350  0.32861648  0.66892972     0.17700
N566        N  0.99903905  0.28447898  0.57573127     0.75200
H567        H  0.96198527  0.33987650  0.58745098     0.09200
C568        C  0.98361164  0.43979122  0.63584140     0.02900
C569        C  0.95272132  0.46114080  0.63516572    -0.05900
C570        C  0.89640257  0.43244408  0.63139760    -0.24200
C571        C  0.87098391  0.37987369  0.62908823     0.12100
C572        C  0.90228451  0.35872241  0.62934185    -0.13400
N573        N  0.04059197  0.47283551  0.63910132     0.63800
H574        H  0.97398424  0.50124154  0.63746757     0.11600
N575        N  0.81387947  0.34612685  0.62637399     0.60400
H576        H  0.88214475  0.31869369  0.62676439     0.07800
O577        O  0.02434934  0.31026194  0.55406536    -0.41000
O578        O  0.95218949  0.24610677  0.57200768    -0.40200
O579        O  0.98620264  0.34486078  0.70021814    -0.40200
O580        O  0.06165639  0.41348589  0.68976186    -0.37900
O581        O  0.79610508  0.32760719  0.60193855    -0.38800
O582        O  0.78903158  0.31969409  0.64794639    -0.35000
O583        O  0.06674587  0.49888494  0.61766814    -0.36400
O584        O  0.05724374  0.49148114  0.66361436    -0.40700
C585        C  0.63809310  0.42284514  0.62829513    -0.14400
C586        C  0.61161658  0.37112937  0.62869223     0.16000
C587        C  0.64303547  0.34982478  0.62756978     0.02300
C588        C  0.69941174  0.37999076  0.62696093    -0.12900
C589        C  0.72681106  0.43198307  0.62748465    -0.03900
C590        C  0.69483745  0.45343993  0.62824867     0.01500
C591        C  0.55163726  0.34124309  0.62792579     0.08400
N592        N  0.61952863  0.29751945  0.62690726     0.64700
H593        H  0.72161731  0.36164049  0.62606892     0.17700
N594        N  0.71741339  0.50562701  0.62990724     0.75200
H595        H  0.61439535  0.43984917  0.62855381     0.09200
C596        C  0.51914012  0.31421092  0.65155900     0.02900
C597        C  0.46273701  0.28732310  0.64947953    -0.05900
C598        C  0.43674702  0.28661307  0.62426448    -0.24200
C599        C  0.46973737  0.31494351  0.60065023     0.12100
C600        C  0.52630334  0.34223805  0.60297779    -0.13400
N601        N  0.54156685  0.31289838  0.67820461     0.63800
H602        H  0.43928618  0.26622814  0.66800607     0.11600
N603        N  0.44819288  0.31770919  0.57395945     0.60400
H604        H  0.55077508  0.36399793  0.58482739     0.07800
O605        O  0.71361416  0.52241993  0.65365339    -0.41000
O606        O  0.71600542  0.52690520  0.60746890    -0.40200
O607        O  0.61963685  0.27854914  0.60322174    -0.40200
O608        O  0.62331228  0.27779393  0.64942461    -0.37900
O609        O  0.45012933  0.35747624  0.56861979    -0.38800
O610        O  0.45216626  0.29442797  0.55324051    -0.35000
O611        O  0.53886498  0.33762665  0.69850005    -0.36400
O612        O  0.53944414  0.27328436  0.68420507    -0.40700
C613        C  0.71517082  0.89946277  0.84792820    -0.14400
C614        C  0.68827642  0.89072182  0.87381807     0.16000
C615        C  0.71946735  0.90750543  0.89918735     0.02300
C616        C  0.77613760  0.93517881  0.89791600    -0.12900
C617        C  0.80379590  0.94650330  0.87184140    -0.03900
C618        C  0.77187209  0.92717892  0.84648787     0.01500
C619        C  0.62808621  0.86199397  0.87341819     0.08400
N620        N  0.69547995  0.89967452  0.92670637     0.64700
H621        H  0.79838773  0.94867880  0.91783898     0.17700
N622        N  0.79453156  0.93517036  0.81861288     0.75200
H623        H  0.69182751  0.88512014  0.82833757     0.09200
C624        C  0.59791982  0.87917061  0.85977807     0.02900
C625        C  0.54135700  0.84973047  0.85932795    -0.05900
C626        C  0.51309761  0.80268381  0.87191805    -0.24200
C627        C  0.54340793  0.78537901  0.88536723     0.12100
C628        C  0.60011652  0.81469347  0.88548071    -0.13400
N629        N  0.62281093  0.92755067  0.84763122     0.63800
H630        H  0.51950625  0.86431926  0.84900931     0.11600
N631        N  0.51882576  0.74006950  0.90097893     0.60400
H632        H  0.62251498  0.80054865  0.89565554     0.07800
O633        O  0.79113761  0.96556733  0.80287268    -0.41000
O634        O  0.79269616  0.89868019  0.80675449    -0.40200
O635        O  0.69572709  0.86777459  0.94259577    -0.40200
O636        O  0.69805411  0.93659020  0.93842397    -0.37900
O637        O  0.52170812  0.70534329  0.89012436    -0.38800
O638        O  0.51982360  0.74345618  0.92789799    -0.35000
O639        O  0.62158398  0.93041106  0.82074653    -0.36400
O640        O  0.62192955  0.96027367  0.86240480    -0.40700
C641        C  0.24135933  0.88398354  0.84969071    -0.14400
C642        C  0.24802202  0.86718417  0.87579865     0.16000
C643        C  0.22828894  0.87722462  0.90069598     0.02300
C644        C  0.20282950  0.90370645  0.89898257    -0.12900
C645        C  0.19561025  0.92057052  0.87279996    -0.03900
C646        C  0.21457848  0.90918570  0.84768369     0.01500
C647        C  0.27930841  0.84302545  0.87574252     0.08400
N648        N  0.23251205  0.86077885  0.92819906     0.64700
H649        H  0.18847800  0.91079749  0.91865621     0.17700
N650        N  0.20684278  0.92111346  0.81952498     0.75200
H651        H  0.25656727  0.87678760  0.83033393     0.09200
C652        C  0.25488172  0.79113956  0.87790924     0.02900
C653        C  0.28609738  0.77028236  0.87522232    -0.05900
C654        C  0.34194744  0.79954320  0.86957365    -0.24200
C655        C  0.36594814  0.85171020  0.86612009     0.12100
C656        C  0.33449344  0.87247771  0.86915032    -0.13400
N657        N  0.19814744  0.75786278  0.88215546     0.63800
H658        H  0.26563642  0.73026108  0.87768401     0.11600
N659        N  0.42156482  0.88511728  0.85893627     0.60400
H660        H  0.35347080  0.91226301  0.86599859     0.07800
O661        O  0.17112268  0.88551161  0.80447692    -0.41000
O662        O  0.24807525  0.95614919  0.80694697    -0.40200
O663        O  0.26682607  0.89329042  0.94523446    -0.40200
O664        O  0.18964993  0.82404344  0.93855150    -0.37900
O665        O  0.43206945  0.90130329  0.83359241    -0.38800
O666        O  0.45259696  0.91325936  0.87857237    -0.35000
O667        O  0.17021542  0.73321505  0.86074994    -0.36400
O668        O  0.18302593  0.73813604  0.90654267    -0.40700
C669        C  0.32115038  0.55948709  0.86018900    -0.14400
C670        C  0.26670447  0.53672364  0.86753127     0.16000
C671        C  0.24750379  0.56730958  0.87590724     0.02300
C672        C  0.28205951  0.61891810  0.87541965    -0.12900
C673        C  0.33628279  0.64214469  0.86700224    -0.03900
C674        C  0.35572808  0.61128650  0.85933191     0.01500
C675        C  0.23282852  0.48154782  0.86799518     0.08400
N676        N  0.19269883  0.54796140  0.88402262     0.64700
H677        H  0.26549790  0.64086447  0.88177783     0.17700
N678        N  0.40922411  0.63016118  0.84920883     0.75200
H679        H  0.33725815  0.53679339  0.85472163     0.09200
C680        C  0.22872248  0.45153480  0.84453381     0.02900
C681        C  0.19906749  0.39990810  0.84704418    -0.05900
C682        C  0.17311544  0.37610748  0.87254525    -0.24200
C683        C  0.17677123  0.40633356  0.89588162     0.12100
C684        C  0.20719235  0.45818686  0.89345311    -0.13400
N685        N  0.25263344  0.47157322  0.81738858     0.63800
H686        H  0.19750585  0.37855724  0.82858957     0.11600
N687        N  0.14894658  0.38650752  0.92216878     0.60400
H688        H  0.21091609  0.48041607  0.91192292     0.07800
O689        O  0.41465354  0.62740433  0.82261828    -0.41000
O690        O  0.44028105  0.62526679  0.86560711    -0.40200
O691        O  0.18362191  0.55032770  0.91019217    -0.40200
O692        O  0.16296556  0.55154445  0.86591563    -0.37900
O693        O  0.17711058  0.38911433  0.94334482    -0.38800
O694        O  0.10829800  0.38963313  0.92678719    -0.35000
O695        O  0.29374426  0.47042195  0.81052269    -0.36400
O696        O  0.22107752  0.46770797  0.79768649    -0.40700
loop_ 
_geom_bond_atom_site_label_1 
_geom_bond_atom_site_label_2 
_geom_bond_distance 
_geom_bond_site_symmetry_2 
_ccdc_geom_bond_type 
C1            N2   1.365       .  A
C1            N6   1.377       .  A
C1          C334   1.491       .  S
N2            C3   1.357       .  A
C3            N4   1.354       .  A
C3           C48   1.473       .  S
N4            C5   1.350       .  A
C5            N6   1.360       .  A
C5          C119   1.485       .  S
C7            N8   1.374       .  A
C7           N12   1.369       .  A
C7          C297   1.480       .  S
N8            C9   1.361       .  A
C9           N10   1.352   1_565  A
C9           C49   1.487   1_565  S
N10          C11   1.354   1_545  A
C11          N12   1.360       .  A
C11         C134   1.483   1_565  S
C13          N14   1.365       .  A
C13          N18   1.362       .  A
C13         C278   1.481       .  S
N14          C15   1.352       .  A
C15          N16   1.361       .  A
C15         C306   1.495       .  S
N16          C17   1.369       .  A
C17          N18   1.359       .  A
C17         C325   1.500       .  S
C19          N20   1.375       .  A
C19          N24   1.364       .  A
C19         C269   1.489       .  S
N20          C21   1.356   1_565  A
C21          N22   1.341       .  A
C21          C47   1.466       .  S
N22          C23   1.344       .  A
C23          N24   1.358   1_545  A
C23         C127   1.456       .  S
Zr25         O26   2.442       .  S
Zr25         O27   2.395       .  S
Zr25         O28   2.402       .  S
Zr25         O31   2.392       .  S
Zr25         O33   2.266       .  S
Zr25         O34   2.373       .  S
Zr25         O35   2.385       .  S
Zr25         O36   2.391       .  S
O26          H82   0.991       .  S
O26          H90   0.989       .  S
O27          C47   1.280   1_455  A
O28          C49   1.281       .  A
O29         Zr39   2.471       .  S
O29          C48   1.290       .  A
O30         Zr38   2.482       .  S
O30          C49   1.291       .  A
O31          C48   1.278       .  A
O32         Zr40   2.433   1_655  S
O32          C47   1.280       .  A
O33         Zr38   2.301       .  S
O33         Zr40   2.291       .  S
O34         Zr39   2.400       .  S
O34         Zr40   2.375       .  S
O34          H69   0.998       .  S
O35         Zr38   2.399       .  S
O35        Zr403   2.402       .  S
O35          H72   0.981       .  S
O36         Zr39   2.406       .  S
O36        Zr403   2.402       .  S
Zr37         O62   2.440       .  S
Zr37         O56   2.400       .  S
Zr37         O64   2.388       .  S
Zr37         O52   2.394       .  S
Zr37         O43   2.387       .  S
Zr37         O44   2.387       .  S
Zr37         O45   2.365       .  S
Zr37         O46   2.373       .  S
Zr38         O50   2.434   1_545  S
Zr38        O405   2.438       .  S
Zr38        O399   2.469       .  S
Zr38        O392   2.403       .  S
Zr38        O393   2.397       .  S
Zr39         O63   2.437       .  S
Zr39        O389   2.436       .  S
Zr39        O413   2.487       .  S
Zr39        O391   2.404       .  S
Zr39        O394   2.391       .  S
Zr40         O66   2.436   1_455  S
Zr40         O42   2.436   1_445  S
Zr40        O415   2.438   1_455  S
Zr40        O391   2.400       .  S
Zr40        O392   2.392       .  S
O41        Zr387   2.436   1_554  S
O41          H78   0.990       .  S
O42          H73   0.991       .  S
O42          H87   0.990       .  S
O43        Zr387   2.403   1_554  S
O43        Zr388   2.400   1_554  S
O44        Zr386   2.405   1_554  S
O44        Zr388   2.398   1_554  S
O44          H70   0.963       .  S
O45         Zr55   2.380       .  S
O45        Zr386   2.395   1_554  S
O46         Zr55   2.383       .  S
O46        Zr387   2.397   1_554  S
O46          H71   0.959       .  S
O50          H86   0.990       .  S
O51        Zr386   2.480   1_564  S
O51          C53   1.291   1_565  A
O52          C53   1.279       .  A
C53         C177   1.477   1_545  S
O54        Zr403   2.436       .  S
O54          H83   0.990       .  S
Zr55         O58   2.435       .  S
Zr55         O59   2.438   1_554  S
Zr55        O402   2.436   1_554  S
Zr55         O60   2.412       .  S
Zr55        O383   2.389   1_554  S
Zr55        O384   2.403   1_554  S
O56          C61   1.281       .  A
O57        Zr386   2.435   1_554  S
O57          H74   0.990       .  S
O57         H437   0.990   1_545  S
O58          H75   0.990   1_554  S
O59          H79   0.991   1_556  S
O59          H88   0.989       .  S
O60          C61   1.276       .  A
C61         C159   1.451       .  S
O62          H81   0.991       .  S
O62          H85   0.989       .  S
O63          H77   0.990       .  S
O63          H84   0.991       .  S
O64          C68   1.278       .  A
O65        Zr387   2.484   1_554  S
O65          C68   1.292       .  A
O66          H76   0.990       .  S
O67        Zr388   2.435   1_654  S
O67          H80   0.989       .  S
C68         C167   1.476       .  S
H89         O405   0.990       .  S
Zr91         O92   2.440       .  S
Zr91         O93   2.399       .  S
Zr91         O94   2.396       .  S
Zr91         O97   2.387       .  S
Zr91         O99   2.364       .  S
Zr91        O100   2.369       .  S
Zr91        O101   2.384       .  S
Zr91        O102   2.389       .  S
O92         H148   0.991       .  S
O92         H156   0.990       .  S
O93         C113   1.281       .  A
O94         C115   1.280       .  A
O95        Zr105   2.490   1_565  S
O95         C114   1.294   1_565  A
O96        Zr104   2.473       .  S
O96         C115   1.291       .  A
O97         C114   1.279       .  A
O98        Zr106   2.427       .  S
O98         C113   1.279       .  A
O99        Zr104   2.395       .  S
O99        Zr106   2.380       .  S
O100       Zr105   2.391       .  S
O100       Zr106   2.379       .  S
O100        H135   1.015       .  S
O101       Zr104   2.402       .  S
O101       Zr121   2.392       .  S
O101        H138   0.983       .  S
O102       Zr105   2.404       .  S
O102       Zr121   2.397       .  S
Zr103       O128   2.439       .  S
Zr103       O122   2.396       .  S
Zr103       O130   2.393       .  S
Zr103       O118   2.403       .  S
Zr103       O109   2.388       .  S
Zr103       O110   2.385       .  S
Zr103       O111   2.367       .  S
Zr103       O112   2.374       .  S
Zr104       O123   2.436       .  S
Zr104       O116   2.434       .  S
Zr104       O117   2.477       .  S
Zr104       O110   2.400       .  S
Zr104       O111   2.396       .  S
Zr105       O107   2.434   1_545  S
Zr105       O129   2.435       .  S
Zr105       O131   2.490   1_545  S
Zr105       O109   2.401       .  S
Zr105       O112   2.394       .  S
Zr106       O132   2.438       .  S
Zr106       O133   2.435       .  S
Zr106       O108   2.436       .  S
Zr106       O109   2.400       .  S
Zr106       O110   2.395       .  S
O107        H144   0.990       .  S
O108        H139   0.990       .  S
O108        H153   0.990       .  S
O110        H136   0.971       .  S
O111       Zr121   2.385       .  S
O112       Zr121   2.382       .  S
O112        H137   0.958       .  S
C113        C161   1.463       .  S
C114        C179   1.485   1_545  S
C115        C165   1.480       .  S
O116        H152   0.990       .  S
O117        C119   1.291       .  A
O118        C119   1.282       .  A
O120       Zr121   2.439   1_655  S
O120        H149   0.990       .  S
Zr121       O124   2.439   1_455  S
Zr121       O125   2.440   1_445  S
Zr121       O126   2.426   1_455  S
O122        C127   1.280   1_455  A
O123        H140   0.990       .  S
O123        H155   0.990       .  S
O124        H141   0.990       .  S
O125        H145   0.990       .  S
O125        H154   0.990       .  S
O126        C127   1.279       .  A
O128        H147   0.990       .  S
O128        H151   0.990       .  S
O129        H143   0.990       .  S
O129        H150   0.990   1_545  S
O130        C134   1.279       .  A
O131        C134   1.293   1_565  A
O132        H142   0.991       .  S
O133        H146   0.990       .  S
C157        N158   1.362       .  A
C157        N162   1.374       .  A
C157        C250   1.487       .  S
N158        C159   1.357       .  A
C159        N160   1.343       .  A
N160        C161   1.339       .  A
C161        N162   1.355       .  A
C163        N164   1.375       .  A
C163        N168   1.367       .  A
C163        C213   1.493       .  S
N164        C165   1.356       .  A
C165        N166   1.350       .  A
N166        C167   1.354       .  A
C167        N168   1.359       .  A
C169        N170   1.353       .  A
C169        N174   1.364       .  A
C169        C241   1.485       .  S
N170        C171   1.361       .  A
C171        N172   1.355       .  A
C171        C194   1.493       .  S
N172        C173   1.366       .  A
C173        N174   1.355       .  A
C173        C222   1.494       .  S
C175        N176   1.367       .  A
C175        N180   1.377       .  A
C175        C185   1.493       .  S
N176        C177   1.359       .  A
C177        N178   1.354   1_565  A
N178        C179   1.351   1_545  A
C179        N180   1.357       .  A
C181        C182   1.389       .  A
C181        C186   1.398   1_655  A
C181        H191   1.085       .  S
C182        C187   1.475       .  S
C182        C183   1.408   1_655  A
C183        C184   1.391       .  A
C183        N188   1.420       .  S
C184        C185   1.398       .  A
C184        H189   1.083       .  S
C185        C186   1.425       .  A
C186        N190   1.421       .  S
C187        C192   1.407       .  A
C187        C196   1.390       .  A
N188        O203   1.262       .  A
N188        O204   1.262   1_455  A
N190        O201   1.262   1_455  A
N190        O202   1.262       .  A
C192        C193   1.390       .  A
C192        N197   1.420       .  S
C193        C194   1.399       .  A
C193        H198   1.082       .  S
C194        C195   1.423       .  A
C195        C196   1.400       .  A
C195        N199   1.421       .  S
C196        H200   1.085   1_655  S
N197        O207   1.262       .  A
N197        O208   1.261       .  A
N199        O205   1.262   1_655  A
N199        O206   1.262   1_655  A
C209        C210   1.388       .  A
C209        C214   1.396   1_655  A
C209        H219   1.085       .  S
C210        C215   1.474       .  S
C210        C211   1.408       .  A
C211        C212   1.392   1_655  A
C211        N216   1.420       .  S
C212        C213   1.400       .  A
C212        H217   1.083       .  S
C213        C214   1.424       .  A
C214        N218   1.421       .  S
C215        C220   1.406       .  A
C215        C224   1.391       .  A
N216        O231   1.262       .  A
N216        O232   1.261   1_655  A
N218        O229   1.262       .  A
N218        O230   1.262   1_455  A
C220        C221   1.388       .  A
C220        N225   1.419   1_655  S
C221        C222   1.397       .  A
C221        H226   1.083       .  S
C222        C223   1.427       .  A
C223        C224   1.401       .  A
C223        N227   1.422       .  S
C224        H228   1.085       .  S
N225        O235   1.262       .  A
N225        O236   1.261       .  A
N227        O233   1.262       .  A
N227        O234   1.262       .  A
C237        C238   1.386       .  A
C237        C242   1.395       .  A
C237        H247   1.085       .  S
C238        C243   1.467       .  S
C238        C239   1.408       .  A
C239        C240   1.389       .  A
C239        N244   1.420       .  S
C240        C241   1.396       .  A
C240        H245   1.084       .  S
C241        C242   1.424       .  A
C242        N246   1.421       .  S
C243        C248   1.406       .  A
C243        C252   1.388       .  A
N244        O259   1.262       .  A
N244        O260   1.261       .  A
N246        O257   1.262       .  A
N246        O258   1.262       .  A
C248        C249   1.386       .  A
C248        N253   1.420       .  S
C249        C250   1.397       .  A
C249        H254   1.083       .  S
C250        C251   1.425       .  A
C251        C252   1.397       .  A
C251        N255   1.422       .  S
C252        H256   1.085       .  S
N253        O263   1.262       .  A
N253        O264   1.261       .  A
N255        O261   1.262       .  A
N255        O262   1.262       .  A
C265        C266   1.389       .  A
C265        C270   1.397       .  A
C265        H275   1.085       .  S
C266        C271   1.481       .  S
C266        C267   1.415       .  A
C267        C268   1.391       .  A
C267        N272   1.421       .  S
C268        C269   1.396       .  A
C268        H273   1.084       .  S
C269        C270   1.423       .  A
C270        N274   1.421       .  S
C271        C276   1.416       .  A
C271        C280   1.390       .  A
N272        O287   1.262       .  A
N272        O288   1.262       .  A
N274        O285   1.262       .  A
N274        O286   1.262       .  A
C276        C277   1.392       .  A
C276        N281   1.421       .  S
C277        C278   1.394       .  A
C277        H282   1.085       .  S
C278        C279   1.418       .  A
C279        C280   1.397       .  A
C279        N283   1.419       .  S
C280        H284   1.084       .  S
N281        O291   1.262       .  A
N281        O292   1.262       .  A
N283        O289   1.261       .  A
N283        O290   1.262       .  A
C293        C294   1.392       .  A
C293        C298   1.399       .  A
C293        H303   1.084       .  S
C294        C299   1.491       .  S
C294        C295   1.422       .  A
C295        C296   1.397       .  A
C295        N300   1.422       .  S
C296        C297   1.391       .  A
C296        H301   1.085       .  S
C297        C298   1.414       .  A
C298        N302   1.419       .  S
C299        C304   1.421       .  A
C299        C308   1.390       .  A
N300        O315   1.263       .  A
N300        O316   1.261       .  A
N302        O313   1.262       .  A
N302        O314   1.262       .  A
C304        C305   1.398       .  A
C304        N309   1.422       .  S
C305        C306   1.394       .  A
C305        H310   1.084       .  S
C306        C307   1.421       .  A
C307        C308   1.399       .  A
C307        N311   1.419       .  S
C308        H312   1.084       .  S
N309        O319   1.263       .  A
N309        O320   1.262       .  A
N311        O317   1.262       .  A
N311        O318   1.262       .  A
C321        C322   1.389       .  A
C321        C326   1.401       .  A
C321        H331   1.085       .  S
C322        C327   1.481       .  S
C322        C323   1.410       .  A
C323        C324   1.393       .  A
C323        N328   1.420       .  S
C324        C325   1.399       .  A
C324        H329   1.083       .  S
C325        C326   1.426       .  A
C326        N330   1.420       .  S
C327        C332   1.412       .  A
C327        C336   1.390       .  A
N328        O343   1.262       .  A
N328        O344   1.262       .  A
N330        O341   1.262       .  A
N330        O342   1.262       .  A
C332        C333   1.393       .  A
C332        N337   1.420       .  S
C333        C334   1.396       .  A
C333        H338   1.084       .  S
C334        C335   1.424       .  A
C335        C336   1.399       .  A
C335        N339   1.421       .  S
C336        H340   1.085       .  S
N337        O347   1.262       .  A
N337        O348   1.262       .  A
N339        O345   1.262       .  A
N339        O346   1.262       .  A
C349        N350   1.368       .  A
C349        N354   1.374       .  A
C349        C682   1.488       .  S
N350        C351   1.360       .  A
C351        N352   1.355       .  A
C351        C396   1.478       .  S
N352        C353   1.349       .  A
C353        N354   1.354       .  A
C353        C467   1.481       .  S
C355        N356   1.380       .  A
C355        N360   1.364       .  A
C355        C645   1.493       .  S
N356        C357   1.362       .  A
C357        N358   1.349   1_565  A
C357        C397   1.487   1_565  S
N358        C359   1.352   1_545  A
C359        N360   1.354       .  A
C359        C482   1.471   1_565  S
C361        N362   1.367       .  A
C361        N366   1.359       .  A
C361        C626   1.478       .  S
N362        C363   1.354       .  A
C363        N364   1.360       .  A
C363        C654   1.496       .  S
N364        C365   1.363       .  A
C365        N366   1.354       .  A
C365        C673   1.487       .  S
C367        N368   1.379       .  A
C367        N372   1.365       .  A
C367        C617   1.497       .  S
N368        C369   1.363   1_565  A
C369        N370   1.341       .  A
C369        C395   1.473       .  S
N370        C371   1.344       .  A
C371        N372   1.357   1_545  A
C371        C475   1.460       .  S
Zr373       O374   2.439       .  S
Zr373       O375   2.414       .  S
Zr373       O376   2.405       .  S
Zr373       O379   2.390       .  S
Zr373       O381   2.367       .  S
Zr373       O382   2.370       .  S
Zr373       O383   2.388       .  S
Zr373       O384   2.390       .  S
O374        H430   0.989       .  S
O374        H438   0.991       .  S
O375        C395   1.285   1_455  A
O376        C397   1.283       .  A
O377       Zr387   2.484       .  S
O377        C396   1.293       .  A
O378       Zr386   2.481       .  S
O378        C397   1.292       .  A
O379        C396   1.279       .  A
O380       Zr388   2.433   1_655  S
O380        C395   1.280       .  A
O381       Zr386   2.397       .  S
O381       Zr388   2.383       .  S
O382       Zr387   2.394       .  S
O382       Zr388   2.375       .  S
O382        H417   1.000       .  S
O383       Zr386   2.405       .  S
O383        H420   0.970       .  S
O384       Zr387   2.406       .  S
Zr385       O410   2.440       .  S
Zr385       O404   2.391       .  S
Zr385       O412   2.394       .  S
Zr385       O400   2.390       .  S
Zr385       O391   2.388       .  S
Zr385       O392   2.392       .  S
Zr385       O393   2.374       .  S
Zr385       O394   2.373       .  S
Zr386       O398   2.434   1_545  S
Zr387       O411   2.437       .  S
Zr388       O414   2.437   1_455  S
Zr388       O390   2.437   1_445  S
O389        H426   0.990       .  S
O390        H421   0.990       .  S
O390        H435   0.990   1_556  S
O392        H418   0.974       .  S
O393       Zr403   2.383       .  S
O394       Zr403   2.383       .  S
O394        H419   0.960       .  S
O398        H434   0.990       .  S
O399        C401   1.290       .  A
O400        C401   1.278       .  A
C401        C525   1.469   1_545  S
O402        H431   0.990       .  S
Zr403       O406   2.435       .  S
Zr403       O407   2.440       .  S
Zr403       O408   2.440       .  S
O404        C409   1.278       .  A
O405        H422   0.990   1_545  S
O406        H423   0.990       .  S
O407        H427   0.990       .  S
O407        H436   0.990       .  S
O408        C409   1.282       .  A
C409        C507   1.460       .  S
O410        H429   0.990       .  S
O410        H433   0.990       .  S
O411        H425   0.990   1_556  S
O411        H432   0.990   1_556  S
O412        C416   1.279       .  A
O413        C416   1.292       .  A
O414        H424   0.990       .  S
O415        H428   0.990       .  S
C416        C515   1.482       .  S
Zr439       O440   2.439       .  S
Zr439       O441   2.401       .  S
Zr439       O442   2.397       .  S
Zr439       O445   2.392       .  S
Zr439       O447   2.366       .  S
Zr439       O448   2.372       .  S
Zr439       O449   2.387       .  S
Zr439       O450   2.388       .  S
O440        H496   0.990       .  S
O440        H504   0.990       .  S
O441        C461   1.281       .  A
O442        C463   1.280       .  A
O443       Zr453   2.482   1_565  S
O443        C462   1.292   1_565  A
O444       Zr452   2.488       .  S
O444        C463   1.293       .  A
O445        C462   1.279       .  A
O446       Zr454   2.439       .  S
O446        C461   1.282       .  A
O447       Zr452   2.397       .  S
O447       Zr454   2.381       .  S
O448       Zr453   2.395       .  S
O448       Zr454   2.377       .  S
O448        H483   1.014       .  S
O449       Zr452   2.403       .  S
O449       Zr469   2.396       .  S
O449        H486   0.987       .  S
O450       Zr453   2.401       .  S
O450       Zr469   2.401       .  S
Zr451       O476   2.440       .  S
Zr451       O470   2.399       .  S
Zr451       O478   2.382       .  S
Zr451       O466   2.395       .  S
Zr451       O457   2.390       .  S
Zr451       O458   2.386       .  S
Zr451       O459   2.366       .  S
Zr451       O460   2.369       .  S
Zr452       O471   2.435       .  S
Zr452       O464   2.434       .  S
Zr452       O465   2.476       .  S
Zr452       O458   2.406       .  S
Zr452       O459   2.399       .  S
Zr453       O455   2.434   1_545  S
Zr453       O477   2.437       .  S
Zr453       O479   2.476       .  S
Zr453       O457   2.404       .  S
Zr453       O460   2.392       .  S
Zr454       O480   2.434       .  S
Zr454       O481   2.437       .  S
Zr454       O456   2.439       .  S
Zr454       O457   2.402       .  S
Zr454       O458   2.399       .  S
O455        H492   0.990       .  S
O456        H487   0.990       .  S
O456        H501   0.990       .  S
O458        H484   0.969       .  S
O459       Zr469   2.383       .  S
O460       Zr469   2.378       .  S
O460        H485   0.960       .  S
C461        C509   1.471       .  S
C462        C527   1.482   1_545  S
C463        C513   1.487       .  S
O464        H500   0.990       .  S
O465        C467   1.292       .  A
O466        C467   1.280       .  A
O468       Zr469   2.435   1_655  S
O468        H497   0.990       .  S
Zr469       O472   2.435   1_455  S
Zr469       O473   2.439   1_445  S
Zr469       O474   2.430   1_455  S
O470        C475   1.280   1_455  A
O471        H488   0.990       .  S
O471        H503   0.990       .  S
O472        H489   0.990       .  S
O473        H493   0.990       .  S
O473        H502   0.990       .  S
O474        C475   1.279       .  A
O476        H495   0.991       .  S
O476        H499   0.990       .  S
O477        H491   0.991   1_545  S
O477        H498   0.990       .  S
O478        C482   1.276       .  A
O479        C482   1.291       .  A
O480        H490   0.990       .  S
O481        H494   0.990       .  S
C505        N506   1.364       .  A
C505        N510   1.376       .  A
C505        C598   1.487       .  S
N506        C507   1.357       .  A
C507        N508   1.346       .  A
N508        C509   1.342       .  A
C509        N510   1.358       .  A
C511        N512   1.377       .  A
C511        N516   1.369       .  A
C511        C561   1.493       .  S
N512        C513   1.358       .  A
C513        N514   1.351       .  A
N514        C515   1.355       .  A
C515        N516   1.360       .  A
C517        N518   1.355       .  A
C517        N522   1.364       .  A
C517        C589   1.492       .  S
N518        C519   1.364       .  A
C519        N520   1.356       .  A
C519        C542   1.492       .  S
N520        C521   1.364       .  A
C521        N522   1.355       .  A
C521        C570   1.493       .  S
C523        N524   1.361       .  A
C523        N528   1.376       .  A
C523        C533   1.490       .  S
N524        C525   1.355       .  A
C525        N526   1.354   1_565  A
N526        C527   1.352   1_545  A
C527        N528   1.358       .  A
C529        C530   1.389   1_455  A
C529        C534   1.397       .  A
C529        H539   1.085   1_455  S
C530        C535   1.474       .  S
C530        C531   1.408   1_655  A
C531        C532   1.390       .  A
C531        N536   1.419   1_455  S
C532        C533   1.396       .  A
C532        H537   1.083       .  S
C533        C534   1.426       .  A
C534        N538   1.422       .  S
C535        C540   1.407       .  A
C535        C544   1.389       .  A
N536        O551   1.262   1_655  A
N536        O552   1.261       .  A
N538        O549   1.262       .  A
N538        O550   1.262       .  A
C540        C541   1.390       .  A
C540        N545   1.420       .  S
C541        C542   1.398       .  A
C541        H546   1.083       .  S
C542        C543   1.424       .  A
C543        C544   1.397       .  A
C543        N547   1.421       .  S
C544        H548   1.085   1_655  S
N545        O555   1.263       .  A
N545        O556   1.261       .  A
N547        O553   1.262   1_655  A
N547        O554   1.262   1_655  A
C557        C558   1.395       .  A
C557        C562   1.399   1_655  A
C557        H567   1.085       .  S
C558        C563   1.484       .  S
C558        C559   1.408   1_655  A
C559        C560   1.394       .  A
C559        N564   1.419       .  S
C560        C561   1.398       .  A
C560        H565   1.084       .  S
C561        C562   1.422       .  A
C562        N566   1.422   1_455  S
C563        C568   1.410       .  A
C563        C572   1.394       .  A
N564        O579   1.262   1_455  A
N564        O580   1.261       .  A
N566        O577   1.262   1_655  A
N566        O578   1.262       .  A
C568        C569   1.393       .  A
C568        N573   1.419   1_655  S
C569        C570   1.397       .  A
C569        H574   1.083       .  S
C570        C571   1.423       .  A
C571        C572   1.398       .  A
C571        N575   1.422       .  S
C572        H576   1.085       .  S
N573        O583   1.262       .  A
N573        O584   1.261       .  A
N575        O581   1.262       .  A
N575        O582   1.262       .  A
C585        C586   1.392       .  A
C585        C590   1.399       .  A
C585        H595   1.085       .  S
C586        C591   1.476       .  S
C586        C587   1.406       .  A
C587        C588   1.389       .  A
C587        N592   1.419       .  S
C588        C589   1.398       .  A
C588        H593   1.083       .  S
C589        C590   1.424       .  A
C590        N594   1.422       .  S
C591        C596   1.408       .  A
C591        C600   1.391       .  A
N592        O607   1.262       .  A
N592        O608   1.261       .  A
N594        O605   1.262       .  A
N594        O606   1.262       .  A
C596        C597   1.392       .  A
C596        N601   1.419       .  S
C597        C598   1.396       .  A
C597        H602   1.084       .  S
C598        C599   1.423       .  A
C599        C600   1.396       .  A
C599        N603   1.422       .  S
C600        H604   1.085       .  S
N601        O611   1.262       .  A
N601        O612   1.261       .  A
N603        O609   1.262       .  A
N603        O610   1.262       .  A
C613        C614   1.387       .  A
C613        C618   1.397       .  A
C613        H623   1.085       .  S
C614        C619   1.482       .  S
C614        C615   1.414       .  A
C615        C616   1.396       .  A
C615        N620   1.421       .  S
C616        C617   1.398       .  A
C616        H621   1.083       .  S
C617        C618   1.427       .  A
C618        N622   1.421       .  S
C619        C624   1.415       .  A
C619        C628   1.389       .  A
N620        O635   1.262       .  A
N620        O636   1.262       .  A
N622        O633   1.262       .  A
N622        O634   1.262       .  A
C624        C625   1.393       .  A
C624        N629   1.420       .  S
C625        C626   1.393       .  A
C625        H630   1.085       .  S
C626        C627   1.418       .  A
C627        C628   1.396       .  A
C627        N631   1.419       .  S
C628        H632   1.084       .  S
N629        O639   1.262       .  A
N629        O640   1.262       .  A
N631        O637   1.260       .  A
N631        O638   1.262       .  A
C641        C642   1.388       .  A
C641        C646   1.394       .  A
C641        H651   1.085       .  S
C642        C647   1.478       .  S
C642        C643   1.409       .  A
C643        C644   1.395       .  A
C643        N648   1.419       .  S
C644        C645   1.398       .  A
C644        H649   1.083       .  S
C645        C646   1.426       .  A
C646        N650   1.422       .  S
C647        C652   1.407       .  A
C647        C656   1.394       .  A
N648        O663   1.262       .  A
N648        O664   1.261       .  A
N650        O661   1.262       .  A
N650        O662   1.262       .  A
C652        C653   1.393       .  A
C652        N657   1.420       .  S
C653        C654   1.400       .  A
C653        H658   1.083       .  S
C654        C655   1.422       .  A
C655        C656   1.399       .  A
C655        N659   1.421       .  S
C656        H660   1.085       .  S
N657        O667   1.262       .  A
N657        O668   1.261       .  A
N659        O665   1.262       .  A
N659        O666   1.262       .  A
C669        C670   1.389       .  A
C669        C674   1.395       .  A
C669        H679   1.084       .  S
C670        C675   1.481       .  S
C670        C671   1.416       .  A
C671        C672   1.390       .  A
C671        N676   1.422       .  S
C672        C673   1.396       .  A
C672        H677   1.084       .  S
C673        C674   1.421       .  A
C674        N678   1.419       .  S
C675        C680   1.416       .  A
C675        C684   1.389       .  A
N676        O691   1.262       .  A
N676        O692   1.262       .  A
N678        O689   1.262       .  A
N678        O690   1.260       .  A
C680        C681   1.390       .  A
C680        N685   1.423       .  S
C681        C682   1.397       .  A
C681        H686   1.084       .  S
C682        C683   1.420       .  A
C683        C684   1.396       .  A
C683        N687   1.420       .  S
C684        H688   1.084       .  S
N685        O695   1.262       .  A
N685        O696   1.262       .  A
N687        O693   1.261       .  A
N687        O694   1.262       .  A
