geometry optimzed in LAMMPS
_audit_creation_date              2020-12-01 
_audit_creation_method            'lammps2cif' 
_symmetry_space_group_name_H-M    'P1' 
_symmetry_Int_Tables_number       1 
_symmetry_cell_setting            triclinic 
loop_ 
_symmetry_equiv_pos_as_xyz 
  x,y,z 
_cell_length_a                    41.73382759 
_cell_length_b                    41.61864675881829 
_cell_length_c                    43.45218765970258 
_cell_angle_alpha                 89.79373155791134 
_cell_angle_beta                  89.75880272720465 
_cell_angle_gamma                 131.0511520379134 
loop_ 
_atom_site_label 
_atom_site_type_symbol 
_atom_site_fract_x 
_atom_site_fract_y 
_atom_site_fract_z 
_atom_site_charge 
C1          C  0.82306928  0.39039845  0.02503952     0.80300
N2          N  0.86310552  0.40457907  0.02678022    -0.78000
C3          C  0.88581555  0.41376657  0.50054686     0.82800
N4          N  0.86842353  0.40891246  0.47266308    -0.77900
C5          C  0.82894804  0.39579562  0.47099877     0.82900
N6          N  0.80659883  0.38651223  0.99716302    -0.79600
C7          C  0.42653457  0.97940002  0.02901169     0.80300
N8          N  0.41616863  0.94102217  0.02742802    -0.78000
C9          C  0.40503386  0.92064669  0.00001712     0.82800
N10         N  0.40402055  0.93880612  0.47429330    -0.77900
C11         C  0.41350393  0.97695454  0.47587314     0.82900
N12         N  0.42492777  0.99679515  0.00336125    -0.79600
C13         C  0.44694428  0.37472937  0.47553079     0.80300
N14         N  0.45774634  0.36951488  0.50334117    -0.78000
C15         C  0.44639742  0.37696743  0.02984719     0.82800
N16         N  0.42315701  0.38908656  0.02859879    -0.77900
C17         C  0.41186782  0.39429377  0.50093504     0.82900
N18         N  0.42359719  0.38686710  0.47450034    -0.79600
O19         O  0.60255376  0.25155240  0.29144353    -0.85200
O20         O  0.52911710  0.17276148  0.27412373    -0.82300
C21         C  0.50181867  0.16605226  0.29260554     0.98200
O22         O  0.48922708  0.18631262  0.28955305    -0.82300
O23         O  0.49265463  0.25321352  0.27627638    -0.85000
C24         C  0.51965080  0.28288014  0.29446367     1.02700
O25         O  0.55874283  0.30276627  0.29112829    -0.77700
O26         O  0.63091412  0.31592252  0.27676497    -0.77900
C27         C  0.63062453  0.29133800  0.29428568     1.02700
O28         O  0.62845382  0.27441533  0.22855830    -0.85200
O29         O  0.55155044  0.19968660  0.21121290    -0.82300
C30         C  0.51209140  0.17171803  0.20717723     0.98200
O31         O  0.48641225  0.16938817  0.22489718    -0.82300
O32         O  0.49660800  0.24063112  0.21179777    -0.84900
C33         C  0.51447911  0.27942539  0.20960168     1.02700
O34         O  0.54444871  0.30652556  0.22745199    -0.77800
O35         O  0.61187272  0.31145559  0.21233843    -0.77900
C36         C  0.63383676  0.30069927  0.20964114     1.02700
Cr37       Cr  0.57592351  0.22631508  0.25135787     1.93700
Cr38       Cr  0.49554584  0.21497115  0.25065657     1.93200
Cr39       Cr  0.58400192  0.30481950  0.25185737     1.39100
O40         O  0.55168719  0.24869955  0.25135413    -1.23000
C41         C  0.99216754  0.45590614  0.47605220     0.80300
N42         N  0.95172352  0.44043047  0.47540404    -0.78000
C43         C  0.92910255  0.42922323  0.50192091     0.82800
N44         N  0.94701030  0.43307419  0.02931851    -0.77900
C45         C  0.98727038  0.44772859  0.02995596     0.82900
N46         N  0.00961125  0.45914411  0.50334853    -0.79600
C47         C  0.38855658  0.82842763  0.46822728     0.80300
N48         N  0.38584834  0.80885619  0.49434886    -0.78000
C49         C  0.38908175  0.82491685  0.02236149     0.82800
N50         N  0.39464295  0.86093117  0.02404745    -0.77900
C51         C  0.39710529  0.88069638  0.49796444     0.82900
N52         N  0.39364064  0.86409963  0.47002603    -0.79600
C53         C  0.36125258  0.43706112  0.02510008     0.80300
N54         N  0.38257249  0.42278345  0.02582982    -0.78000
C55         C  0.38747187  0.40832445  0.99981865     0.82800
N56         N  0.37018400  0.40745359  0.47297966    -0.77900
C57         C  0.34752843  0.42039560  0.47229839     0.82900
N58         N  0.34375819  0.43555811  0.99836748    -0.79600
O59         O  0.20401129  0.55905449  0.28953607    -0.85200
O60         O  0.28075210  0.63404921  0.27065225    -0.82300
C61         C  0.30384081  0.63620102  0.29073535     0.98200
O62         O  0.31275680  0.61265042  0.28903453    -0.82300
O63         O  0.30369914  0.54235829  0.27603515    -0.85000
C64         C  0.27500557  0.51334218  0.29423425     1.02700
O65         O  0.23695856  0.49684586  0.29094197    -0.77700
O66         O  0.17012278  0.49251102  0.27705481    -0.77900
C67         C  0.17455801  0.51973098  0.29432653     1.02700
O68         O  0.17727239  0.53599451  0.22739016    -0.85200
O69         O  0.25745796  0.60579352  0.20830756    -0.82300
C70         C  0.29720707  0.63160425  0.20471533     0.98200
O71         O  0.32036344  0.63211334  0.22388344    -0.82300
O72         O  0.30293263  0.55760097  0.21158711    -0.84900
C73         C  0.28093846  0.51805744  0.20839758     1.02700
O74         O  0.25093114  0.49194815  0.22705950    -0.77800
O75         O  0.18854136  0.49417082  0.21219678    -0.77900
C76         C  0.17066739  0.50916601  0.20865058     1.02700
Cr77       Cr  0.23134763  0.58168024  0.24905473     1.93700
Cr78       Cr  0.30591312  0.58402638  0.25022962     1.93200
Cr79       Cr  0.21424521  0.49802687  0.25170956     1.39100
O80         O  0.25050321  0.55439790  0.25046158    -1.23000
C81         C  0.32797844  0.50437680  0.36070360    -0.22400
C82         C  0.30220574  0.46008085  0.36319857     0.09600
C83         C  0.26777586  0.43347781  0.34305764     0.10000
C84         C  0.25975444  0.45195709  0.32084684    -0.17300
C85         C  0.28535330  0.49641840  0.31840015    -0.27700
C86         C  0.31979500  0.52298997  0.33884017     0.18300
C87         C  0.30975642  0.44272629  0.38912695     0.12300
C88         C  0.23973248  0.38574203  0.34498566    -0.12000
H89         H  0.23344488  0.43158601  0.30517691     0.12600
C90         C  0.34723243  0.57070996  0.33964733    -0.22900
H91         H  0.35386133  0.52457404  0.37674042     0.08200
C92         C  0.34282186  0.44166870  0.38848420     0.04600
C93         C  0.35274664  0.43126824  0.41552837    -0.20100
C94         C  0.32999789  0.42159347  0.44306981    -0.12400
C95         C  0.29396953  0.41842013  0.44253949     0.13300
C96         C  0.28519875  0.43026549  0.41583811    -0.22800
C97         C  0.36806081  0.45237954  0.35946109    -0.05900
H98         H  0.37972995  0.43287624  0.41548801     0.14800
C99         C  0.26355525  0.40213354  0.46931530    -0.16100
H100        H  0.25911169  0.43010983  0.41590483     0.09100
H101        H  0.38062189  0.58616043  0.33410898     0.07000
H102        H  0.34599401  0.58044349  0.36308270     0.08200
H103        H  0.33698208  0.58287222  0.32350559     0.07200
H104        H  0.22399352  0.37416812  0.36791636     0.02100
H105        H  0.25919518  0.37659632  0.34151071     0.02600
H106        H  0.21460104  0.36964460  0.32719961     0.06100
H107        H  0.39250186  0.44955611  0.36278364     0.05100
H108        H  0.38440352  0.48555053  0.35210121    -0.00700
H109        H  0.34640924  0.43018974  0.34092679     0.00800
H110        H  0.26717820  0.42878687  0.47950743     0.04500
H111        H  0.26781326  0.38637645  0.48733807     0.06400
H112        H  0.23042411  0.37759419  0.46111586     0.07300
C113        C  0.27648922  0.45605351  0.14143027    -0.22400
C114        C  0.31983969  0.48089744  0.13498484     0.09600
C115        C  0.35004200  0.51631412  0.15344378     0.10000
C116        C  0.33605457  0.52700076  0.17742253    -0.17300
C117        C  0.29251548  0.50297399  0.18353812    -0.27700
C118        C  0.26221432  0.46658173  0.16534609     0.18300
C119        C  0.33270290  0.47069651  0.10758314     0.12300
C120        C  0.39696985  0.54261739  0.14791168    -0.12000
H121        H  0.35936284  0.55443804  0.19150452     0.12600
C122        C  0.21477379  0.43894094  0.16903135    -0.22900
H123        H  0.25351476  0.42891784  0.12697992     0.08200
C124        C  0.33307026  0.43709659  0.10775829     0.04600
C125        C  0.34415443  0.42794301  0.08073197    -0.20100
C126        C  0.35476576  0.45161304  0.05354831    -0.12400
C127        C  0.35603702  0.48652639  0.05388737     0.13300
C128        C  0.34419227  0.49501266  0.08078605    -0.22800
C129        C  0.32155821  0.41086177  0.13639495    -0.05900
H130        H  0.34327060  0.40132847  0.08059296     0.14800
C131        C  0.37103924  0.51653194  0.02695935    -0.16100
H132        H  0.34437905  0.52119404  0.08100415     0.09100
H133        H  0.20079192  0.40635707  0.17620197     0.07000
H134        H  0.20080158  0.43680024  0.14663918     0.08200
H135        H  0.20507958  0.45097620  0.18580927     0.07200
H136        H  0.40581439  0.55719940  0.12457203     0.02100
H137        H  0.40501515  0.52201064  0.14984429     0.02600
H138        H  0.41627320  0.56868751  0.16489811     0.06100
H139        H  0.32396338  0.38611610  0.13268487     0.05100
H140        H  0.28840476  0.39460204  0.14346885    -0.00700
H141        H  0.34339461  0.43184407  0.15528191     0.00800
H142        H  0.34406481  0.51300830  0.01784132     0.04500
H143        H  0.38527314  0.51162693  0.00808658     0.06400
H144        H  0.39616920  0.54987055  0.03471763     0.07300
C145        C  0.39874436  0.77521679  0.40336626    -0.22400
C146        C  0.36235751  0.75857416  0.38643793     0.09600
C147        C  0.33704089  0.76854488  0.39473757     0.10000
C148        C  0.34822257  0.79423873  0.42046172    -0.17300
C149        C  0.38344367  0.80913201  0.43834675    -0.27700
C150        C  0.40973132  0.80051779  0.42924599     0.18300
C151        C  0.34952149  0.72806798  0.36165171     0.12300
C152        C  0.29726652  0.75051343  0.37730784    -0.12000
H153        H  0.32805942  0.80073534  0.42766121     0.12600
C154        C  0.44958013  0.81758622  0.44615625    -0.22900
H155        H  0.41818840  0.76762949  0.39671269     0.08200
C156        C  0.36085705  0.74114946  0.33065432     0.04600
C157        C  0.34586313  0.71034749  0.30796575    -0.20100
C158        C  0.32073395  0.66707377  0.31576893    -0.12400
C159        C  0.31014212  0.65412547  0.34698069     0.13300
C160        C  0.32487620  0.68495769  0.36954371    -0.22800
C161        C  0.38891752  0.78748999  0.32162833    -0.05900
H162        H  0.35377761  0.72003599  0.28401214     0.14800
C163        C  0.28195197  0.60815502  0.35728414    -0.16100
H164        H  0.31634509  0.67520910  0.39347361     0.09100
H165        H  0.47706050  0.83641594  0.42996569     0.07000
H166        H  0.44633028  0.79066159  0.45541565     0.08200
H167        H  0.45687530  0.83879650  0.46542731     0.07200
H168        H  0.27486196  0.71516986  0.37830024     0.02100
H169        H  0.30521206  0.76108709  0.35290608     0.02600
H170        H  0.28091311  0.76107467  0.38712422     0.06100
H171        H  0.39492619  0.79218142  0.29640639     0.05100
H172        H  0.41998694  0.80576056  0.33335893    -0.00700
H173        H  0.37375665  0.80050067  0.32840973     0.00800
H174        H  0.29973740  0.60404556  0.37326532     0.04500
H175        H  0.27028576  0.58554774  0.33808942     0.06400
H176        H  0.25368378  0.59926871  0.36956686     0.07300
C177        C  0.38484668  0.75198478  0.07910021    -0.22400
C178        C  0.36071193  0.74959243  0.10292174     0.09600
C179        C  0.34943441  0.77490625  0.10164680     0.10000
C180        C  0.36068771  0.80053852  0.07560317    -0.17300
C181        C  0.38275993  0.80121547  0.05070427    -0.27700
C182        C  0.39616589  0.77753301  0.05296519     0.18300
C183        C  0.34557814  0.71864039  0.12824306     0.12300
C184        C  0.32485830  0.77418831  0.12755573    -0.12000
H185        H  0.35074259  0.81888516  0.07422898     0.12600
C186        C  0.42288992  0.77931721  0.02835631    -0.22900
H187        H  0.39389242  0.73284937  0.08066247     0.08200
C188        C  0.30606163  0.67683503  0.12649657     0.04600
C189        C  0.29175046  0.64906172  0.15158913    -0.20100
C190        C  0.31615557  0.66192045  0.17837417    -0.12400
C191        C  0.35644121  0.70367603  0.17969895     0.13300
C192        C  0.37056623  0.73151158  0.15452125    -0.22800
C193        C  0.27886610  0.66166329  0.09822293    -0.05900
H194        H  0.26110713  0.61707747  0.15031661     0.14800
C195        C  0.38400955  0.71985259  0.20782722    -0.16100
H196        H  0.40094222  0.76374270  0.15546683     0.09100
H197        H  0.43372687  0.76217907  0.03554109     0.07000
H198        H  0.45156637  0.81297454  0.02349166     0.08200
H199        H  0.40418069  0.76391810  0.00707682     0.07200
H200        H  0.34323346  0.78442497  0.14918537     0.02100
H201        H  0.29381340  0.74147486  0.13076134     0.02600
H202        H  0.31864127  0.79592553  0.12293382     0.06100
H203        H  0.24887308  0.62802176  0.10068788     0.05100
H204        H  0.29653195  0.66389079  0.07794831    -0.00700
H205        H  0.27046351  0.68165998  0.09402392     0.00800
H206        H  0.39393684  0.70115087  0.21186042     0.04500
H207        H  0.36623150  0.71723076  0.22817444     0.06400
H208        H  0.41332799  0.75381082  0.20520440     0.07300
C209        C  0.12245845  0.48403907  0.12907682    -0.22400
C210        C  0.08408592  0.47435103  0.13603246     0.09600
C211        C  0.07326725  0.47365269  0.16695016     0.10000
C212        C  0.10171731  0.48374236  0.19020778    -0.17300
C213        C  0.14084977  0.49490669  0.18322453    -0.27700
C214        C  0.15155874  0.49538480  0.15215146     0.18300
C215        C  0.05738077  0.46807731  0.11030007     0.12300
C216        C  0.03250690  0.46376249  0.17531926    -0.12000
H217        H  0.09377512  0.48377306  0.21399573     0.12600
C218        C  0.19417636  0.51046739  0.14198080    -0.22900
H219        H  0.13065344  0.48473195  0.10521473     0.08200
C220        C  0.07073194  0.50253442  0.09121285     0.04600
C221        C  0.04616498  0.49479807  0.06572073    -0.20100
C222        C  0.00825128  0.45364066  0.05915076    -0.12400
C223        C  0.99404237  0.41932341  0.07890209     0.13300
C224        C  0.01894480  0.42706018  0.10426558    -0.22800
C225        C  0.11071013  0.54750224  0.09780835    -0.05900
H226        H  0.05686970  0.52098883  0.05052170     0.14800
C227        C  0.95408398  0.37403130  0.07330090    -0.16100
H228        H  0.00887715  0.40070330  0.11898674     0.09100
H229        H  0.20938993  0.53782288  0.12581562     0.07000
H230        H  0.18960205  0.48436186  0.12978371     0.08200
H231        H  0.21667886  0.52134636  0.16102276     0.07200
H232        H  0.00489848  0.43098711  0.16801176     0.02100
H233        H  0.03140747  0.48683417  0.16371756     0.02600
H234        H  0.02962716  0.46578511  0.20052384     0.06100
H235        H  0.11546269  0.57069754  0.08120926     0.05100
H236        H  0.13887374  0.55010992  0.09616804    -0.00700
H237        H  0.10875684  0.55655687  0.12130044     0.00800
H238        H  0.96215395  0.35349624  0.07091103     0.04500
H239        H  0.93717554  0.37032664  0.05222111     0.06400
H240        H  0.93203997  0.36243224  0.09318834     0.07300
C241        C  0.10322945  0.46690526  0.36527431    -0.22400
C242        C  0.08787072  0.48833456  0.36667426     0.09600
C243        C  0.09947829  0.51834709  0.34373067     0.10000
C244        C  0.12708030  0.52693545  0.32006774    -0.17300
C245        C  0.14341128  0.50629028  0.31888011    -0.27700
C246        C  0.13115813  0.47563536  0.34176086     0.18300
C247        C  0.06207518  0.48095154  0.39359278     0.12300
C248        C  0.08291486  0.54139845  0.34434870    -0.12000
H249        H  0.13633563  0.55027023  0.30247674     0.12600
C250        C  0.14827898  0.45314017  0.34335379    -0.22900
H251        H  0.09439384  0.44416232  0.38326158     0.08200
C252        C  0.01829836  0.44534655  0.39559204     0.04600
C253        C  0.99586990  0.43880935  0.42245351    -0.20100
C254        C  0.01635998  0.46723898  0.44719034    -0.12400
C255        C  0.05986768  0.50425832  0.44432010     0.13300
C256        C  0.08230410  0.51010579  0.41774867    -0.22800
C257        C  0.99549227  0.41430131  0.36947353    -0.05900
H258        H  0.96247305  0.41070906  0.42450640     0.14800
C259        C  0.08342481  0.53902782  0.46807157    -0.16100
H260        H  0.11584650  0.53790634  0.41568328     0.09100
H261        H  0.12163869  0.41822449  0.34163957     0.07000
H262        H  0.16442462  0.46008420  0.36571851     0.08200
H263        H  0.17157671  0.46298456  0.32502853     0.07200
H264        H  0.09337137  0.56045591  0.36566821     0.02100
H265        H  0.04765888  0.51794139  0.34369580     0.02600
H266        H  0.09470145  0.56340008  0.32435972     0.06100
H267        H  0.96115761  0.38837862  0.37469595     0.05100
H268        H  0.00960514  0.39959893  0.36502315    -0.00700
H269        H  0.99845054  0.43123663  0.34836946     0.00800
H270        H  0.10876783  0.54070333  0.47840986     0.04500
H271        H  0.06264504  0.53472138  0.48664246     0.06400
H272        H  0.09834055  0.57008899  0.45681340     0.07300
C273        C  0.50597737  0.37211552  0.09264141    -0.22400
C274        C  0.47232901  0.34057488  0.11195735     0.09600
C275        C  0.43095276  0.32477267  0.10616920     0.10000
C276        C  0.42375220  0.33921909  0.08005032    -0.17300
C277        C  0.45704450  0.36899593  0.05966736    -0.27700
C278        C  0.49897925  0.38694378  0.06675411     0.18300
C279        C  0.48101064  0.32331579  0.13726422     0.12300
C280        C  0.39432723  0.29176000  0.12702961    -0.12000
H281        H  0.39169525  0.32575679  0.07475114     0.12600
C282        C  0.53712481  0.42230393  0.04796364    -0.22900
H283        H  0.53789558  0.38489040  0.09761719     0.08200
C284        C  0.48211832  0.29063665  0.13193134     0.04600
C285        C  0.49185200  0.27608938  0.15625066    -0.20100
C286        C  0.50060072  0.29352895  0.18581491    -0.12400
C287        C  0.49754292  0.32505280  0.19140317     0.13300
C288        C  0.48856453  0.34003623  0.16685631    -0.22800
C289        C  0.47333674  0.27139893  0.10048145    -0.05900
H290        H  0.49373211  0.25170938  0.15195044     0.14800
C291        C  0.50170498  0.34248224  0.22294134    -0.16100
H292        H  0.48685290  0.36458447  0.17090803     0.09100
H293        H  0.55271043  0.41111152  0.03779900     0.07000
H294        H  0.56018268  0.44982114  0.06309890     0.08200
H295        H  0.52903459  0.43401949  0.02927678     0.07200
H296        H  0.40048920  0.30461519  0.15066405     0.02100
H297        H  0.39049125  0.26272238  0.12764284     0.02600
H298        H  0.36401359  0.28253265  0.11908041     0.06100
H299        H  0.47517677  0.24595890  0.10030104     0.05100
H300        H  0.49699618  0.29639871  0.08363673    -0.00700
H301        H  0.44097007  0.25720200  0.09312308     0.00800
H302        H  0.53038159  0.37688057  0.22354253     0.05100
H303        H  0.50352143  0.32574931  0.24173345     0.06400
H304        H  0.47330525  0.33879231  0.22792418     0.07300
C305        C  0.50250334  0.35679508  0.41705460    -0.22400
C306        C  0.47566462  0.34217145  0.39177093     0.09600
C307        C  0.44067060  0.34017056  0.39330691     0.10000
C308        C  0.43263728  0.35184134  0.42066389    -0.17300
C309        C  0.45870771  0.36526090  0.44664293    -0.27700
C310        C  0.49482370  0.36860764  0.44439197     0.18300
C311        C  0.48420993  0.32724255  0.36468981     0.12300
C312        C  0.41198584  0.32581023  0.36608167    -0.12000
H313        H  0.40522279  0.34950790  0.42191602     0.12600
C314        C  0.52627058  0.38540218  0.47011060    -0.22900
H315        H  0.52947363  0.35839618  0.41543512     0.08200
C316        C  0.51819865  0.35608669  0.34425995     0.04600
C317        C  0.52860429  0.34040678  0.32146764    -0.20100
C318        C  0.50589412  0.29654100  0.31867895    -0.12400
C319        C  0.47134682  0.26759367  0.33903905     0.13300
C320        C  0.46081104  0.28343708  0.36156333    -0.22800
C321        C  0.54342939  0.40334236  0.34656816    -0.05900
H322        H  0.55474423  0.36256202  0.30573350     0.14800
C323        C  0.44628641  0.22022674  0.33917568    -0.16100
H324        H  0.43518502  0.26151299  0.37772355     0.09100
H325        H  0.55411242  0.38903266  0.46301476     0.07000
H326        H  0.51120240  0.36297705  0.48996710     0.08200
H327        H  0.53837011  0.41727943  0.47708203     0.07200
H328        H  0.39683564  0.29263860  0.36005757     0.02100
H329        H  0.43084636  0.34706223  0.34605830     0.02600
H330        H  0.38641354  0.32668224  0.37094100     0.06100
H331        H  0.56838322  0.42135112  0.32839151     0.05100
H332        H  0.55925636  0.41501916  0.36925263    -0.00700
H333        H  0.52189971  0.41011995  0.34399244     0.00800
H334        H  0.44806005  0.21004131  0.36230336     0.04500
H335        H  0.45809140  0.21018514  0.32246978     0.06400
H336        H  0.41250241  0.20321330  0.33399290     0.07300
C337        C  0.48816518  0.09353379  0.35541741    -0.22400
C338        C  0.44629853  0.07171078  0.36501824     0.09600
C339        C  0.42245421  0.08037546  0.35062137     0.10000
C340        C  0.44128069  0.11104853  0.32692038    -0.17300
C341        C  0.48343351  0.13325046  0.31725827    -0.27700
C342        C  0.50716778  0.12420188  0.33179132     0.18300
C343        C  0.43023666  0.04331289  0.39229274     0.12300
C344        C  0.37719824  0.05715307  0.36020250    -0.12000
H345        H  0.42292579  0.11771026  0.31586628     0.12600
C346        C  0.55308038  0.14790894  0.32376264    -0.22900
H347        H  0.50643732  0.08718632  0.36711928     0.08200
C348        C  0.41976869  0.00355718  0.39101766     0.04600
C349        C  0.41248665  0.98171537  0.41853318    -0.20100
C350        C  0.41548938  0.99873703  0.44746768    -0.12400
C351        C  0.42256361  0.03727880  0.44822838     0.13300
C352        C  0.43019232  0.05897666  0.42063055    -0.22800
C353        C  0.41666968  0.98445724  0.36061211    -0.05900
H354        H  0.40588500  0.95186546  0.41729414     0.14800
C355        C  0.42270510  0.05670785  0.47756709    -0.16100
H356        H  0.43791051  0.08944787  0.42118954     0.09100
H357        H  0.55588953  0.14112123  0.29971153     0.07000
H358        H  0.56699784  0.13826214  0.33881912     0.08200
H359        H  0.57208533  0.18263732  0.32671144     0.07200
H360        H  0.37595801  0.06387890  0.38465955     0.02100
H361        H  0.35786064  0.02233088  0.35735224     0.02600
H362        H  0.36279380  0.06708132  0.34612521     0.06100
H363        H  0.40722114  0.95269272  0.36360623     0.05100
H364        H  0.44781803  0.00556745  0.34847074    -0.00700
H365        H  0.39246699  0.98055430  0.34612516     0.00800
H366        H  0.45054997  0.06854187  0.49174370     0.04500
H367        H  0.39270587  0.03286090  0.99063061     0.06400
H368        H  0.42505919  0.08447316  0.47294889     0.07300
C369        C  0.48809653  0.07027209  0.08538494    -0.22400
C370        C  0.46089962  0.05164582  0.11100916     0.09600
C371        C  0.42427621  0.00800481  0.11072750     0.10000
C372        C  0.41472921  0.98423981  0.08406271    -0.17300
C373        C  0.44112790  0.00341435  0.05791685    -0.27700
C374        C  0.47916639  0.04657583  0.05902383     0.18300
C375        C  0.47144542  0.07921926  0.13744208     0.12300
C376        C  0.39533211  0.98681143  0.13842067    -0.12000
H377        H  0.38582410  0.95107045  0.08321063     0.12600
C378        C  0.51162399  0.06850639  0.03326092    -0.22900
H379        H  0.51663320  0.10367464  0.08600384     0.08200
C380        C  0.50479675  0.09320473  0.15745636     0.04600
C381        C  0.51678702  0.12309651  0.18007805    -0.20100
C382        C  0.49640610  0.13958059  0.18307313    -0.12400
C383        C  0.46266941  0.12524401  0.16299636     0.13300
C384        C  0.45038822  0.09482608  0.14065114    -0.22800
C385        C  0.52766222  0.07655089  0.15493842    -0.05900
H386        H  0.54239889  0.13377718  0.19554659     0.14800
C387        C  0.44040451  0.14266443  0.16299129    -0.16100
H388        H  0.42525506  0.08442084  0.12475198     0.09100
H389        H  0.54297529  0.08163365  0.04235476     0.07000
H390        H  0.51451567  0.09517043  0.02388999     0.08200
H391        H  0.50398030  0.04690210  0.01421297     0.07200
H392        H  0.38208367  0.00216043  0.14377213     0.02100
H393        H  0.41347752  0.98985698  0.15852663     0.02600
H394        H  0.36838612  0.95238612  0.13448523     0.06100
H395        H  0.55234078  0.09013078  0.17288601     0.05100
H396        H  0.54355397  0.08506419  0.13212565    -0.00700
H397        H  0.50455893  0.04135152  0.15771386     0.00800
H398        H  0.44297743  0.15536156  0.13972247     0.04500
H399        H  0.45393736  0.16901371  0.17927963     0.06400
H400        H  0.40627500  0.11670893  0.16876562     0.07300
C401        C  0.75917549  0.38705951  0.41038907    -0.22400
C402        C  0.75473889  0.35831129  0.39018199     0.09600
C403        C  0.77918842  0.34635884  0.39436620     0.10000
C404        C  0.80605401  0.36180838  0.41991025    -0.17300
C405        C  0.80857062  0.38863841  0.44122811    -0.27700
C406        C  0.78616505  0.40279998  0.43571942     0.18300
C407        C  0.72312870  0.34018208  0.36543600     0.12300
C408        C  0.77575921  0.31627416  0.37247269    -0.12000
H409        H  0.82327750  0.35103534  0.42417034     0.12600
C410        C  0.79013102  0.43463223  0.45591718    -0.22900
H411        H  0.74093834  0.39680289  0.40659056     0.08200
C412        C  0.68013948  0.30394794  0.37071832     0.04600
C413        C  0.65087572  0.28872952  0.34690035    -0.20100
C414        C  0.66361347  0.30900231  0.31795553    -0.12400
C415        C  0.70719749  0.34480127  0.31251308     0.13300
C416        C  0.73618805  0.36023671  0.33659000    -0.22800
C417        C  0.66520554  0.28155119  0.40153223    -0.05900
H418        H  0.61769483  0.26116812  0.35104314     0.14800
C419        C  0.72511452  0.36667377  0.28163039    -0.16100
H420        H  0.76944450  0.38784131  0.33272718     0.09100
H421        H  0.75910639  0.41924808  0.46725844     0.07000
H422        H  0.79934111  0.46174336  0.44155923     0.08200
H423        H  0.81472252  0.44817005  0.47383827     0.07200
H424        H  0.78498285  0.33025596  0.34891877     0.02100
H425        H  0.74256233  0.28540564  0.37220979     0.02600
H426        H  0.79685453  0.30997947  0.37920362     0.06100
H427        H  0.63057458  0.25358532  0.40170788     0.05100
H428        H  0.67162013  0.30383660  0.41964688    -0.00700
H429        H  0.68225412  0.27018269  0.40714371     0.00800
H430        H  0.73843235  0.40007269  0.28328809     0.04500
H431        H  0.70179901  0.35088205  0.26281194     0.06400
H432        H  0.75104104  0.36701803  0.27488098     0.07300
C433        C  0.72978975  0.33536573  0.08078271    -0.22400
C434        C  0.74909519  0.36246697  0.10609357     0.09600
C435        C  0.79300377  0.39810737  0.10525965     0.10000
C436        C  0.81671909  0.40606247  0.07874591    -0.17300
C437        C  0.79724729  0.37940122  0.05302200    -0.27700
C438        C  0.75311564  0.34335836  0.05415839     0.18300
C439        C  0.72262660  0.35100782  0.13374240     0.12300
C440        C  0.81452258  0.42792622  0.13214006    -0.12000
H441        H  0.85039161  0.43369524  0.07784646     0.12600
C442        C  0.73039023  0.31225808  0.02794655    -0.22900
H443        H  0.69613867  0.30765793  0.08198429     0.08200
C444        C  0.69362540  0.35764462  0.13517669     0.04600
C445        C  0.66597209  0.34189743  0.16057467    -0.20100
C446        C  0.66612418  0.31900580  0.18445574    -0.12400
C447        C  0.69628087  0.31333719  0.18305705     0.13300
C448        C  0.72407159  0.32960571  0.15774247    -0.22800
C449        C  0.69171692  0.38107231  0.10978047    -0.05900
H450        H  0.64337142  0.34664872  0.16129651     0.14800
C451        C  0.69967872  0.28996837  0.20760369    -0.16100
H452        H  0.74641926  0.32454626  0.15612744     0.09100
H453        H  0.72901996  0.32764375  0.00771938     0.07000
H454        H  0.69708868  0.28410684  0.03420283     0.08200
H455        H  0.74700250  0.30059636  0.52163339     0.07200
H456        H  0.81155196  0.41039557  0.15283212     0.02100
H457        H  0.79940705  0.44155759  0.13694001     0.02600
H458        H  0.84886328  0.45465340  0.12751424     0.06100
H459        H  0.66768640  0.38412700  0.11471700     0.05100
H460        H  0.68311621  0.36369002  0.08779257    -0.00700
H461        H  0.72317819  0.41359047  0.10709152     0.00800
H462        H  0.72614259  0.29040585  0.20286077     0.04500
H463        H  0.67001164  0.25603914  0.20863813     0.06400
H464        H  0.70587321  0.30523065  0.23025127     0.07300
C465        C  0.82306953  0.39039915  0.52503974     0.80300
N466        N  0.86310569  0.40457954  0.52678041    -0.78000
C467        C  0.88581547  0.41376629  0.00054668     0.82800
N468        N  0.86842346  0.40891217  0.97266290    -0.77900
C469        C  0.82894789  0.39579511  0.97099856     0.82900
N470        N  0.80659910  0.38651297  0.49716325    -0.79600
C471        C  0.42653468  0.97940027  0.52901169     0.80300
N472        N  0.41616875  0.94102241  0.52742807    -0.78000
C473        C  0.40503379  0.92064679  0.50001723     0.82800
N474        N  0.40402082  0.93880617  0.97429320    -0.77900
C475        C  0.41350425  0.97695463  0.97587309     0.82900
N476        N  0.42492763  0.99679522  0.50336125    -0.79600
C477        C  0.44694429  0.37472951  0.97553083     0.80300
N478        N  0.45774639  0.36951489  0.00334115    -0.78000
C479        C  0.44639725  0.37696741  0.52984714     0.82800
N480        N  0.42315674  0.38908641  0.52859862    -0.77900
C481        C  0.41186808  0.39429404  0.00093525     0.82900
N482        N  0.42359733  0.38686735  0.97450050    -0.79600
O483        O  0.60255343  0.25155247  0.79144355    -0.85200
O484        O  0.52911684  0.17276156  0.77412355    -0.82300
C485        C  0.50181841  0.16605224  0.79260540     0.98200
O486        O  0.48922682  0.18631261  0.78955299    -0.82300
O487        O  0.49265425  0.25321347  0.77627639    -0.85000
C488        C  0.51965040  0.28288015  0.79446367     1.02700
O489        O  0.55874243  0.30276631  0.79112832    -0.77700
O490        O  0.63091379  0.31592262  0.77676509    -0.77900
C491        C  0.63062422  0.29133805  0.79428572     1.02700
O492        O  0.62845370  0.27441566  0.72855840    -0.85200
O493        O  0.55155038  0.19968702  0.71121281    -0.82300
C494        C  0.51209135  0.17171839  0.70717710     0.98200
O495        O  0.48641212  0.16938839  0.72489707    -0.82300
O496        O  0.49660773  0.24063128  0.71179779    -0.84900
C497        C  0.51447883  0.27942556  0.70960174     1.02700
O498        O  0.54444845  0.30652572  0.72745203    -0.77800
O499        O  0.61187259  0.31145589  0.71233852    -0.77900
C500        C  0.63383670  0.30069967  0.70964127     1.02700
Cr501      Cr  0.57592331  0.22631529  0.75135783     1.93700
Cr502      Cr  0.49554557  0.21497124  0.75065654     1.93200
Cr503      Cr  0.58400164  0.30481965  0.75185743     1.39100
O504        O  0.55168694  0.24869970  0.75135413    -1.23000
C505        C  0.99216747  0.45590598  0.97605200     0.80300
N506        N  0.95172344  0.44043022  0.97540387    -0.78000
C507        C  0.92910254  0.42922313  0.00192076     0.82800
N508        N  0.94701019  0.43307405  0.52931865    -0.77900
C509        C  0.98727023  0.44772835  0.52995613     0.82900
N510        N  0.00961132  0.45914420  0.00334833    -0.79600
C511        C  0.38855666  0.82842758  0.96822709     0.80300
N512        N  0.38584831  0.80885605  0.99434865    -0.78000
C513        C  0.38908185  0.82491708  0.52236169     0.82800
N514        N  0.39464303  0.86093138  0.52404761    -0.77900
C515        C  0.39710532  0.88069627  0.99796430     0.82900
N516        N  0.39364075  0.86409960  0.97002587    -0.79600
C517        C  0.36125185  0.43706042  0.52509967     0.80300
N518        N  0.38257188  0.42278290  0.52582949    -0.78000
C519        C  0.38747147  0.40832402  0.49981834     0.82800
N520        N  0.37018431  0.40745404  0.97298002    -0.77900
C521        C  0.34752886  0.42039620  0.97229883     0.82900
N522        N  0.34375755  0.43555740  0.49836701    -0.79600
O523        O  0.20401115  0.55905416  0.78953600    -0.85200
O524        O  0.28075200  0.63404895  0.77065227    -0.82300
C525        C  0.30384079  0.63620081  0.79073533     0.98200
O526        O  0.31275680  0.61265023  0.78903448    -0.82300
O527        O  0.30369915  0.54235810  0.77603509    -0.85000
C528        C  0.27500562  0.51334206  0.79423423     1.02700
O529        O  0.23695858  0.49684568  0.79094191    -0.77700
O530        O  0.17012276  0.49251073  0.77705470    -0.77900
C531        C  0.17455789  0.51973064  0.79432642     1.02700
O532        O  0.17727241  0.53599432  0.72739006    -0.85200
O533        O  0.25745800  0.60579344  0.70830756    -0.82300
C534        C  0.29720711  0.63160419  0.70471534     0.98200
O535        O  0.32036346  0.63211322  0.72388343    -0.82300
O536        O  0.30293264  0.55760084  0.71158701    -0.84900
C537        C  0.28093843  0.51805730  0.70839743     1.02700
O538        O  0.25093121  0.49194801  0.72705941    -0.77800
O539        O  0.18854142  0.49417064  0.71219671    -0.77900
C540        C  0.17066738  0.50916576  0.70865053     1.02700
Cr541      Cr  0.23134759  0.58168002  0.74905469     1.93700
Cr542      Cr  0.30591313  0.58402621  0.75022956     1.93200
Cr543      Cr  0.21424525  0.49802668  0.75170948     1.39100
O544        O  0.25050321  0.55439771  0.75046152    -1.23000
C545        C  0.32797839  0.50437688  0.86070371    -0.22400
C546        C  0.30220565  0.46008102  0.86319901     0.09600
C547        C  0.26777564  0.43347788  0.84305819     0.10000
C548        C  0.25975446  0.45195720  0.82084732    -0.17300
C549        C  0.28535332  0.49641839  0.81840026    -0.27700
C550        C  0.31979513  0.52299006  0.83884019     0.18300
C551        C  0.30975644  0.44272660  0.88912744     0.12300
C552        C  0.23973208  0.38574210  0.84498648    -0.12000
H553        H  0.23344441  0.43158573  0.80517725     0.12600
C554        C  0.34723274  0.57071007  0.83964709    -0.22900
H555        H  0.35386167  0.52457442  0.87674062     0.08200
C556        C  0.34282179  0.44166885  0.88848461     0.04600
C557        C  0.35274674  0.43126854  0.91552878    -0.20100
C558        C  0.32999820  0.42159404  0.94307031    -0.12400
C559        C  0.29396995  0.41842089  0.94254010     0.13300
C560        C  0.28519910  0.43026611  0.91583870    -0.22800
C561        C  0.36806046  0.45237938  0.85946141    -0.05900
H562        H  0.37972991  0.43287640  0.91548834     0.14800
C563        C  0.26355590  0.40213462  0.96931602    -0.16100
H564        H  0.25911196  0.43011058  0.91590549     0.09100
H565        H  0.38062217  0.58616034  0.83410874     0.07000
H566        H  0.34599447  0.58044388  0.86308241     0.08200
H567        H  0.33698250  0.58287232  0.82350526     0.07200
H568        H  0.22399321  0.37416848  0.86791721     0.02100
H569        H  0.25919460  0.37659617  0.84151162     0.02600
H570        H  0.21460052  0.36964458  0.82720046     0.06100
H571        H  0.39250146  0.44955587  0.86278390     0.05100
H572        H  0.38440321  0.48555035  0.85210141    -0.00700
H573        H  0.34640871  0.43018947  0.84092723     0.00800
H574        H  0.26717912  0.42878813  0.97950811     0.04500
H575        H  0.26781388  0.38637752  0.98733878     0.06400
H576        H  0.23042465  0.37759536  0.96111672     0.07300
C577        C  0.27648865  0.45605332  0.64142986    -0.22400
C578        C  0.31983907  0.48089715  0.63498429     0.09600
C579        C  0.35004153  0.51631385  0.65344317     0.10000
C580        C  0.33605426  0.52700053  0.67742200    -0.17300
C581        C  0.29251525  0.50297385  0.68353780    -0.27700
C582        C  0.26221395  0.46658160  0.66534580     0.18300
C583        C  0.33270210  0.47069601  0.60758259     0.12300
C584        C  0.39696934  0.54261706  0.64791091    -0.12000
H585        H  0.35936271  0.55443790  0.69150399     0.12600
C586        C  0.21477344  0.43894089  0.66903121    -0.22900
H587        H  0.25351406  0.42891763  0.62697956     0.08200
C588        C  0.33306914  0.43709587  0.60775777     0.04600
C589        C  0.34415326  0.42794205  0.58073149    -0.20100
C590        C  0.35476489  0.45161232  0.55354785    -0.12400
C591        C  0.35603644  0.48652586  0.55388687     0.13300
C592        C  0.34419171  0.49501236  0.58078550    -0.22800
C593        C  0.32155689  0.41086099  0.63639443    -0.05900
H594        H  0.34326922  0.40132769  0.58059250     0.14800
C595        C  0.37103902  0.51653154  0.52695889    -0.16100
H596        H  0.34437874  0.52119359  0.58100358     0.09100
H597        H  0.20079155  0.40635698  0.67620174     0.07000
H598        H  0.20080113  0.43680028  0.64663911     0.08200
H599        H  0.20507938  0.45097614  0.68580926     0.07200
H600        H  0.40581376  0.55719907  0.62457127     0.02100
H601        H  0.40501460  0.52201027  0.64984343     0.02600
H602        H  0.41627281  0.56868720  0.66489732     0.06100
H603        H  0.32396184  0.38611520  0.63268439     0.05100
H604        H  0.28840345  0.39460143  0.64346829    -0.00700
H605        H  0.34339330  0.43184323  0.65528142     0.00800
H606        H  0.34406483  0.51300823  0.51784079     0.04500
H607        H  0.38527279  0.51162631  0.50808612     0.06400
H608        H  0.39616915  0.54987006  0.53471719     0.07300
C609        C  0.39874443  0.77521683  0.90336607    -0.22400
C610        C  0.36235762  0.75857420  0.88643772     0.09600
C611        C  0.33704102  0.76854494  0.89473735     0.10000
C612        C  0.34822271  0.79423879  0.92046150    -0.17300
C613        C  0.38344379  0.80913204  0.93834654    -0.27700
C614        C  0.40973143  0.80051780  0.92924579     0.18300
C615        C  0.34952157  0.72806797  0.86165154     0.12300
C616        C  0.29726664  0.75051347  0.87730764    -0.12000
H617        H  0.32805956  0.80073542  0.92766099     0.12600
C618        C  0.44958019  0.81758615  0.94615608    -0.22900
H619        H  0.41818854  0.76762947  0.89671247     0.08200
C620        C  0.36085711  0.74114937  0.83065413     0.04600
C621        C  0.34586315  0.71034730  0.80796567    -0.20100
C622        C  0.32073401  0.66707363  0.81576886    -0.12400
C623        C  0.31014223  0.65412541  0.84698063     0.13300
C624        C  0.32487634  0.68495772  0.86954353    -0.22800
C625        C  0.38891757  0.78748987  0.82162810    -0.05900
H626        H  0.35377762  0.72003580  0.78401191     0.14800
C627        C  0.28195216  0.60815499  0.85728415    -0.16100
H628        H  0.31634520  0.67520913  0.89347362     0.09100
H629        H  0.47706060  0.83641587  0.92996554     0.07000
H630        H  0.44633029  0.79066147  0.95541546     0.08200
H631        H  0.45687535  0.83879640  0.96542715     0.07200
H632        H  0.27486208  0.71516990  0.87830006     0.02100
H633        H  0.30521216  0.76108710  0.85290587     0.02600
H634        H  0.28091324  0.76107473  0.88712402     0.06100
H635        H  0.39492623  0.79218124  0.79640613     0.05100
H636        H  0.41998699  0.80576047  0.83335868    -0.00700
H637        H  0.37375670  0.80050056  0.82840945     0.00800
H638        H  0.29973766  0.60404564  0.87326536     0.04500
H639        H  0.27028597  0.58554767  0.83808948     0.06400
H640        H  0.25368395  0.59926866  0.86956688     0.07300
C641        C  0.38484693  0.75198516  0.57910046    -0.22400
C642        C  0.36071221  0.74959283  0.60292200     0.09600
C643        C  0.34943474  0.77490670  0.60164708     0.10000
C644        C  0.36068800  0.80053892  0.57560342    -0.17300
C645        C  0.38276014  0.80121580  0.55070450    -0.27700
C646        C  0.39616611  0.77753335  0.55296543     0.18300
C647        C  0.34557831  0.71864069  0.62824327     0.12300
C648        C  0.32485872  0.77418884  0.62755603    -0.12000
H649        H  0.35074289  0.81888559  0.57422924     0.12600
C650        C  0.42289007  0.77931750  0.52835651    -0.22900
H651        H  0.39389266  0.73284972  0.58066271     0.08200
C652        C  0.30606162  0.67683547  0.62649681     0.04600
C653        C  0.29175033  0.64906197  0.65158930    -0.20100
C654        C  0.31615565  0.66192052  0.67837425    -0.12400
C655        C  0.35644148  0.70367595  0.67969898     0.13300
C656        C  0.37056657  0.73151165  0.65452135    -0.22800
C657        C  0.27886599  0.66166397  0.59822325    -0.05900
H658        H  0.26110703  0.61707801  0.65031681     0.14800
C659        C  0.38401005  0.71985224  0.70782711    -0.16100
H660        H  0.40094263  0.76374258  0.65546689     0.09100
H661        H  0.43372705  0.76217938  0.53554130     0.07000
H662        H  0.45156651  0.81297481  0.52349182     0.08200
H663        H  0.40418079  0.76391832  0.50707706     0.07200
H664        H  0.34323392  0.78442548  0.64918565     0.02100
H665        H  0.29381379  0.74147542  0.63076168     0.02600
H666        H  0.31864174  0.79592610  0.62293414     0.06100
H667        H  0.24887287  0.62802252  0.60068819     0.05100
H668        H  0.29653168  0.66389137  0.57794854    -0.00700
H669        H  0.27046363  0.68166087  0.59402438     0.00800
H670        H  0.39393706  0.70115023  0.71186008     0.04500
H671        H  0.36623229  0.71723058  0.72817448     0.06400
H672        H  0.41332865  0.75381038  0.70520426     0.07300
C673        C  0.12245837  0.48403893  0.62907689    -0.22400
C674        C  0.08408564  0.47435039  0.63603258     0.09600
C675        C  0.07326681  0.47365159  0.66695032     0.10000
C676        C  0.10171698  0.48374141  0.69020793    -0.17300
C677        C  0.14084968  0.49490629  0.68322454    -0.27700
C678        C  0.15155876  0.49538477  0.65215144     0.18300
C679        C  0.05738045  0.46807673  0.61030024     0.12300
C680        C  0.03250618  0.46376076  0.67531952    -0.12000
H681        H  0.09377473  0.48377182  0.71399584     0.12600
C682        C  0.19417656  0.51046787  0.64198072    -0.22900
H683        H  0.13065349  0.48473213  0.60521468     0.08200
C684        C  0.07073147  0.50253396  0.59121323     0.04600
C685        C  0.04616455  0.49479768  0.56572111    -0.20100
C686        C  0.00825103  0.45364027  0.55915094    -0.12400
C687        C  0.99404220  0.41932290  0.57890210     0.13300
C688        C  0.01894461  0.42705957  0.60426557    -0.22800
C689        C  0.11070941  0.54750181  0.59780897    -0.05900
H690        H  0.05686920  0.52098858  0.55052219     0.14800
C691        C  0.95408389  0.37403081  0.57330076    -0.16100
H692        H  0.00887706  0.40070261  0.61898658     0.09100
H693        H  0.20938996  0.53782350  0.62581569     0.07000
H694        H  0.18960256  0.48436262  0.62978343     0.08200
H695        H  0.21667904  0.52134679  0.66102267     0.07200
H696        H  0.00489801  0.43098534  0.66801190     0.02100
H697        H  0.03140637  0.48683227  0.66371799     0.02600
H698        H  0.02962634  0.46578308  0.70052412     0.06100
H699        H  0.11546183  0.57069720  0.58121004     0.05100
H700        H  0.13887320  0.55010982  0.59616862    -0.00700
H701        H  0.10875588  0.55655609  0.62130113     0.00800
H702        H  0.96215396  0.35349584  0.57091071     0.04500
H703        H  0.93717543  0.37032628  0.55222102     0.06400
H704        H  0.93203986  0.36243153  0.59318821     0.07300
C705        C  0.10322933  0.46690486  0.86527417    -0.22400
C706        C  0.08787032  0.48833389  0.86667400     0.09600
C707        C  0.09947764  0.51834621  0.84373031     0.10000
C708        C  0.12707976  0.52693467  0.82006745    -0.17300
C709        C  0.14341107  0.50628982  0.81887994    -0.27700
C710        C  0.13115809  0.47563505  0.84176076     0.18300
C711        C  0.06207484  0.48095093  0.89359254     0.12300
C712        C  0.08291384  0.54139722  0.84434816    -0.12000
H713        H  0.13633496  0.55026937  0.80247633     0.12600
C714        C  0.14827923  0.45314014  0.84335381    -0.22900
H715        H  0.09439389  0.44416204  0.88326155     0.08200
C716        C  0.01829809  0.44534578  0.89559197     0.04600
C717        C  0.99586961  0.43880862  0.92245346    -0.20100
C718        C  0.01635983  0.46723863  0.94719012    -0.12400
C719        C  0.05986744  0.50425807  0.94431971     0.13300
C720        C  0.08230394  0.51010557  0.91774827    -0.22800
C721        C  0.99549197  0.41430021  0.86947365    -0.05900
H722        H  0.96247310  0.41070847  0.92450647     0.14800
C723        C  0.08342457  0.53902780  0.96807102    -0.16100
H724        H  0.11584591  0.53790591  0.91568276     0.09100
H725        H  0.12163908  0.41822442  0.84163966     0.07000
H726        H  0.16442493  0.46008436  0.86571853     0.08200
H727        H  0.17157698  0.46298459  0.82502855     0.07200
H728        H  0.09337021  0.56045478  0.86566760     0.02100
H729        H  0.04765786  0.51793994  0.84369527     0.02600
H730        H  0.09470027  0.56339871  0.82435911     0.06100
H731        H  0.96115740  0.38837743  0.87469619     0.05100
H732        H  0.00960504  0.39959799  0.86502338    -0.00700
H733        H  0.99845000  0.43123522  0.84836946     0.00800
H734        H  0.10876773  0.54070358  0.97840931     0.04500
H735        H  0.06264481  0.53472138  0.98664194     0.06400
H736        H  0.09834008  0.57008881  0.95681272     0.07300
C737        C  0.50597731  0.37211600  0.59264162    -0.22400
C738        C  0.47232880  0.34057516  0.61195745     0.09600
C739        C  0.43095250  0.32477270  0.60616915     0.10000
C740        C  0.42375185  0.33921900  0.58005022    -0.17300
C741        C  0.45704430  0.36899602  0.55966736    -0.27700
C742        C  0.49897908  0.38694410  0.56675425     0.18300
C743        C  0.48101043  0.32331606  0.63726431     0.12300
C744        C  0.39432689  0.29175982  0.62702944    -0.12000
H745        H  0.39169510  0.32575662  0.57475097     0.12600
C746        C  0.53712466  0.42230435  0.54796384    -0.22900
H747        H  0.53789531  0.38489094  0.59761747     0.08200
C748        C  0.48211826  0.29063703  0.63193139     0.04600
C749        C  0.49185188  0.27608971  0.65625070    -0.20100
C750        C  0.50060045  0.29352914  0.68581498    -0.12400
C751        C  0.49754255  0.32505291  0.69140328     0.13300
C752        C  0.48856417  0.34003636  0.66685643    -0.22800
C753        C  0.47333693  0.27139951  0.60048144    -0.05900
H754        H  0.49373209  0.25170976  0.65195045     0.14800
C755        C  0.50170451  0.34248224  0.72294147    -0.16100
H756        H  0.48685244  0.36458454  0.67090819     0.09100
H757        H  0.55271045  0.41111210  0.53779929     0.07000
H758        H  0.56018236  0.44982160  0.56309909     0.08200
H759        H  0.52903437  0.43401979  0.52927688     0.07200
H760        H  0.40048865  0.30461491  0.65066391     0.02100
H761        H  0.39049115  0.26272233  0.62764268     0.02600
H762        H  0.36401324  0.28253230  0.61908015     0.06100
H763        H  0.47517706  0.24595955  0.60030099     0.05100
H764        H  0.49699644  0.29639942  0.58363681    -0.00700
H765        H  0.44097028  0.25720255  0.59312297     0.00800
H766        H  0.53038106  0.37688060  0.72354271     0.05100
H767        H  0.50352103  0.32574934  0.74173355     0.06400
H768        H  0.47330471  0.33879219  0.72792433     0.07300
C769        C  0.50250333  0.35679549  0.91705432    -0.22400
C770        C  0.47566430  0.34217164  0.89177078     0.09600
C771        C  0.44067017  0.34017056  0.89330694     0.10000
C772        C  0.43263682  0.35184131  0.92066398    -0.17300
C773        C  0.45870761  0.36526106  0.94664290    -0.27700
C774        C  0.49482372  0.36860804  0.94439175     0.18300
C775        C  0.48420948  0.32724267  0.86468964     0.12300
C776        C  0.41198518  0.32581005  0.86608182    -0.12000
H777        H  0.40522255  0.34950774  0.92191625     0.12600
C778        C  0.52627086  0.38540284  0.97011023    -0.22900
H779        H  0.52947350  0.35839674  0.91543473     0.08200
C780        C  0.51819809  0.35608675  0.84425969     0.04600
C781        C  0.52860376  0.34040683  0.82146741    -0.20100
C782        C  0.50589366  0.29654103  0.81867887    -0.12400
C783        C  0.47134642  0.26759374  0.83903901     0.13300
C784        C  0.46081062  0.28343718  0.86156327    -0.22800
C785        C  0.54342872  0.40334242  0.84656776    -0.05900
H786        H  0.55474356  0.36256197  0.80573324     0.14800
C787        C  0.44628608  0.22022682  0.83917574    -0.16100
H788        H  0.43518473  0.26151318  0.87772351     0.09100
H789        H  0.55411273  0.38903350  0.96301426     0.07000
H790        H  0.51120291  0.36297777  0.98996677     0.08200
H791        H  0.53837024  0.41728005  0.97708166     0.07200
H792        H  0.39683507  0.29263843  0.86005773     0.02100
H793        H  0.43084553  0.34706203  0.84605839     0.02600
H794        H  0.38641284  0.32668193  0.87094127     0.06100
H795        H  0.56838245  0.42135112  0.82839105     0.05100
H796        H  0.55925580  0.41501939  0.86925218    -0.00700
H797        H  0.52189894  0.41011988  0.84399204     0.00800
H798        H  0.44805979  0.21004149  0.86230343     0.04500
H799        H  0.45809107  0.21018520  0.82246986     0.06400
H800        H  0.41250206  0.20321331  0.83399299     0.07300
C801        C  0.48816479  0.09353308  0.85541674    -0.22400
C802        C  0.44629843  0.07171062  0.86501804     0.09600
C803        C  0.42245431  0.08037583  0.85062162     0.10000
C804        C  0.44128072  0.11104888  0.82692063    -0.17300
C805        C  0.48343327  0.13325034  0.81725807    -0.27700
C806        C  0.50716733  0.12420118  0.83179067     0.18300
C807        C  0.43023680  0.04331290  0.89229264     0.12300
C808        C  0.37719863  0.05715405  0.86020324    -0.12000
H809        H  0.42292593  0.11771103  0.81586687     0.12600
C810        C  0.55307966  0.14790764  0.82376151    -0.22900
H811        H  0.50643681  0.08718521  0.86711829     0.08200
C812        C  0.41976829  0.00355693  0.89101757     0.04600
C813        C  0.41248644  0.98171536  0.91853312    -0.20100
C814        C  0.41548979  0.99873720  0.94746764    -0.12400
C815        C  0.42256462  0.03727931  0.94822835     0.13300
C816        C  0.43019315  0.05897693  0.92063049    -0.22800
C817        C  0.41666850  0.98445661  0.86061201    -0.05900
H818        H  0.40588425  0.95186489  0.91729406     0.14800
C819        C  0.42270690  0.05670880  0.97756709    -0.16100
H820        H  0.43791187  0.08944868  0.92118948     0.09100
H821        H  0.55588822  0.14111974  0.79971030     0.07000
H822        H  0.56699703  0.13826046  0.83881768     0.08200
H823        H  0.57208511  0.18263610  0.82671034     0.07200
H824        H  0.37595900  0.06388006  0.88466037     0.02100
H825        H  0.35786056  0.02233178  0.85735300     0.02600
H826        H  0.36279430  0.06708265  0.84612626     0.06100
H827        H  0.40721958  0.95269189  0.86360616     0.05100
H828        H  0.44781663  0.00556642  0.84847036    -0.00700
H829        H  0.39246574  0.98055388  0.84612531     0.00800
H830        H  0.45055180  0.06854245  0.99174350     0.04500
H831        H  0.39270400  0.03285950  0.49063045     0.06400
H832        H  0.42506156  0.08447450  0.97294891     0.07300
C833        C  0.48809646  0.07027269  0.58538466    -0.22400
C834        C  0.46089991  0.05164631  0.61100906     0.09600
C835        C  0.42427689  0.00800513  0.61072762     0.10000
C836        C  0.41472994  0.98424017  0.58406285    -0.17300
C837        C  0.44112816  0.00341473  0.55791680    -0.27700
C838        C  0.47916634  0.04657641  0.55902357     0.18300
C839        C  0.47144566  0.07921974  0.63744195     0.12300
C840        C  0.39533321  0.98681165  0.63842099    -0.12000
H841        H  0.38582490  0.95107046  0.58321094     0.12600
C842        C  0.51162362  0.06850715  0.53326046    -0.22900
H843        H  0.51663293  0.10367543  0.58600340     0.08200
C844        C  0.50479713  0.09320543  0.65745615     0.04600
C845        C  0.51678726  0.12309714  0.68007781    -0.20100
C846        C  0.49640619  0.13958104  0.68307298    -0.12400
C847        C  0.46266940  0.12524429  0.66299625     0.13300
C848        C  0.45038839  0.09482640  0.64065112    -0.22800
C849        C  0.52766284  0.07655186  0.65493810    -0.05900
H850        H  0.54239934  0.13377800  0.69554638     0.14800
C851        C  0.44040435  0.14266455  0.66299121    -0.16100
H852        H  0.42525489  0.08442090  0.62475184     0.09100
H853        H  0.54297519  0.08163498  0.54235410     0.07000
H854        H  0.51451466  0.09517080  0.52388951     0.08200
H855        H  0.50398008  0.04690286  0.51421256     0.07200
H856        H  0.38208440  0.00216024  0.64377261     0.02100
H857        H  0.41347906  0.98985760  0.65852678     0.02600
H858        H  0.36838745  0.95238621  0.63448569     0.06100
H859        H  0.55234155  0.09013194  0.67288562     0.05100
H860        H  0.54355447  0.08506519  0.63212527    -0.00700
H861        H  0.50455974  0.04135250  0.65771358     0.00800
H862        H  0.44297713  0.15536158  0.63972236     0.04500
H863        H  0.45393715  0.16901384  0.67927950     0.06400
H864        H  0.40627486  0.11670897  0.66876559     0.07300
C865        C  0.75917543  0.38705936  0.91038884    -0.22400
C866        C  0.75473901  0.35831124  0.89018169     0.09600
C867        C  0.77918858  0.34635883  0.89436583     0.10000
C868        C  0.80605413  0.36180821  0.91990992    -0.17300
C869        C  0.80857056  0.38863807  0.94122788    -0.27700
C870        C  0.78616496  0.40279963  0.93571926     0.18300
C871        C  0.72312873  0.34018199  0.86543575     0.12300
C872        C  0.77575950  0.31627431  0.87247222    -0.12000
H873        H  0.82327755  0.35103525  0.92416994     0.12600
C874        C  0.79013077  0.43463168  0.95591716    -0.22900
H875        H  0.74093842  0.39680260  0.90659044     0.08200
C876        C  0.68013953  0.30394789  0.87071816     0.04600
C877        C  0.65087554  0.28872942  0.84690030    -0.20100
C878        C  0.66361327  0.30900232  0.81795547    -0.12400
C879        C  0.70719729  0.34480120  0.81251292     0.13300
C880        C  0.73618801  0.36023664  0.83658973    -0.22800
C881        C  0.66520571  0.28155115  0.90153207    -0.05900
H882        H  0.61769490  0.26116826  0.85104313     0.14800
C883        C  0.72511420  0.36667367  0.78163020    -0.16100
H884        H  0.76944433  0.38784109  0.83272686     0.09100
H885        H  0.75910609  0.41924741  0.96725836     0.07000
H886        H  0.79934091  0.46174291  0.94155933     0.08200
H887        H  0.81472220  0.44816939  0.97383831     0.07200
H888        H  0.78498319  0.33025624  0.84891833     0.02100
H889        H  0.74256262  0.28540576  0.87220923     0.02600
H890        H  0.79685482  0.30997962  0.87920310     0.06100
H891        H  0.63057477  0.25358533  0.90170781     0.05100
H892        H  0.67162043  0.30383659  0.91964677    -0.00700
H893        H  0.68225430  0.27018262  0.90714344     0.00800
H894        H  0.73843213  0.40007262  0.78328793     0.04500
H895        H  0.70179857  0.35088198  0.76281181     0.06400
H896        H  0.75104060  0.36701782  0.77488068     0.07300
C897        C  0.72978994  0.33536701  0.58078289    -0.22400
C898        C  0.74909566  0.36246780  0.60609397     0.09600
C899        C  0.79300442  0.39810765  0.60526023     0.10000
C900        C  0.81671959  0.40606271  0.57874640    -0.17300
C901        C  0.79724757  0.37940200  0.55302226    -0.27700
C902        C  0.75311573  0.34335962  0.55415850     0.18300
C903        C  0.72262707  0.35100866  0.63374281     0.12300
C904        C  0.81452358  0.42792597  0.63214090    -0.12000
H905        H  0.85039235  0.43369516  0.57784709     0.12600
C906        C  0.73038996  0.31225979  0.52794645    -0.22900
H907        H  0.69613874  0.30765959  0.58198433     0.08200
C908        C  0.69362607  0.35764572  0.63517716     0.04600
C909        C  0.66597251  0.34189842  0.66057506    -0.20100
C910        C  0.66612433  0.31900637  0.68445598    -0.12400
C911        C  0.69628084  0.31333751  0.68305725     0.13300
C912        C  0.72407184  0.32960615  0.65774275    -0.22800
C913        C  0.69171794  0.38107383  0.60978109    -0.05900
H914        H  0.64337224  0.34664987  0.66129692     0.14800
C915        C  0.69967831  0.28996824  0.70760373    -0.16100
H916        H  0.74641906  0.32454654  0.65612770     0.09100
H917        H  0.72902003  0.32764601  0.50771950     0.07000
H918        H  0.69708826  0.28410879  0.53420263     0.08200
H919        H  0.74700330  0.30059513  0.02163380     0.07200
H920        H  0.81155254  0.41039474  0.65283272     0.02100
H921        H  0.79940864  0.44155786  0.63694120     0.02600
H922        H  0.84886440  0.45465280  0.62751517     0.06100
H923        H  0.66768763  0.38412875  0.61471767     0.05100
H924        H  0.68311720  0.36369172  0.58779309    -0.00700
H925        H  0.72317935  0.41359192  0.60709228     0.00800
H926        H  0.72614202  0.29040552  0.70286081     0.04500
H927        H  0.67001107  0.25603906  0.70863797     0.06400
H928        H  0.70587275  0.30523029  0.73025142     0.07300
loop_ 
_geom_bond_atom_site_label_1 
_geom_bond_atom_site_label_2 
_geom_bond_distance 
_geom_bond_site_symmetry_2 
_ccdc_geom_bond_type 
C1            N2   1.361       .  A
C1            N6   1.352   1_554  A
C1          C437   1.479       .  S
N2          C467   1.362       .  A
C3            N4   1.361       .  A
C3          N466   1.362       .  A
C3           C43   1.468       .  S
N4            C5   1.356       .  A
C5          N470   1.351       .  A
C5          C405   1.471       .  S
N6          C469   1.351       .  A
C7            N8   1.355       .  A
C7           N12   1.353       .  A
C7          C373   1.471   1_565  S
N8            C9   1.359       .  A
C9          N474   1.363   1_554  A
C9          C515   1.470   1_554  S
N10          C11   1.363       .  A
N10         C473   1.363       .  A
C11         N476   1.353       .  A
C11         C350   1.498       .  S
N12         C475   1.353   1_554  A
C13          N14   1.357       .  A
C13          N18   1.361       .  A
C13         C309   1.491       .  S
N14         C479   1.356       .  A
C15          N16   1.357       .  A
C15         N478   1.356       .  A
C15         C277   1.477       .  S
N16         C481   1.360       .  A
C17          N18   1.361       .  A
C17         N480   1.360       .  A
C17         C519   1.470       .  S
O19         Cr37   1.967       .  S
O19          C27   1.259       .  A
O20         Cr37   2.003       .  S
O20          C21   1.262       .  A
C21         C341   1.485       .  S
C21          O22   1.260       .  A
O22         Cr38   1.979       .  S
O23         Cr38   2.013       .  S
O23          C24   1.267       .  A
C24         C318   1.479       .  S
C24          O25   1.261       .  A
O25         Cr39   1.974       .  S
O26         Cr39   2.013       .  S
O26          C27   1.267       .  A
C27         C414   1.477       .  S
O28         Cr37   2.000       .  S
O28          C36   1.262       .  A
O29         Cr37   1.963       .  S
O29          C30   1.258       .  A
C30         C382   1.477       .  S
C30          O31   1.268       .  A
O31         Cr38   2.016       .  S
O32         Cr38   1.979       .  S
O32          C33   1.260       .  A
C33         C286   1.482       .  S
C33          O34   1.265       .  A
O34         Cr39   2.006       .  S
O35         Cr39   1.984       .  S
O35          C36   1.262       .  A
C36         C446   1.492       .  S
Cr37         O40   1.769       .  S
Cr38         O40   1.773       .  S
Cr39         O40   1.771       .  S
C41          N42   1.355       .  A
C41          N46   1.354   1_655  A
C41         C254   1.475   1_655  S
N42          C43   1.358       .  A
C43         N508   1.361       .  A
N44          C45   1.360       .  A
N44         C507   1.361       .  A
C45         N510   1.355   1_655  A
C45         C222   1.471   1_655  S
N46         C509   1.355   1_455  A
C47          N48   1.355       .  A
C47          N52   1.357       .  A
C47         C149   1.470       .  S
N48         C513   1.355       .  A
C49          N50   1.360       .  A
C49         N512   1.355   1_554  A
C49         C181   1.485       .  S
N50         C515   1.361   1_554  A
C51          N52   1.359       .  A
C51         N514   1.361       .  A
C51         C473   1.470       .  S
C53          N54   1.357       .  A
C53          N58   1.354   1_554  A
C53         C126   1.479       .  S
N54          C55   1.359   1_554  A
C55         N520   1.362       .  A
C55         C481   1.470   1_556  S
N56          C57   1.362       .  A
N56         C519   1.362       .  A
C57         N522   1.357       .  A
C57          C94   1.485       .  S
N58         C521   1.357       .  A
O59         Cr77   1.960       .  S
O59          C67   1.259       .  A
O60         Cr77   2.003       .  S
O60          C61   1.262       .  A
C61         C158   1.469       .  S
C61          O62   1.259       .  A
O62         Cr78   1.979       .  S
O63         Cr78   2.012       .  S
O63          C64   1.266       .  A
C64          C85   1.478       .  S
C64          O65   1.259       .  A
O65         Cr79   1.970       .  S
O66         Cr79   2.020       .  S
O66          C67   1.270       .  A
C67         C245   1.473       .  S
O68         Cr77   1.997       .  S
O68          C76   1.261       .  A
O69         Cr77   1.966       .  S
O69          C70   1.259       .  A
C70         C190   1.483       .  S
C70          O71   1.268       .  A
O71         Cr78   2.018       .  S
O72         Cr78   1.970       .  S
O72          C73   1.260       .  A
C73         C117   1.481       .  S
C73          O74   1.267       .  A
O74         Cr79   2.013       .  S
O75         Cr79   1.979       .  S
O75          C76   1.258       .  A
C76         C213   1.472       .  S
Cr77         O80   1.768       .  S
Cr78         O80   1.767       .  S
Cr79         O80   1.770       .  S
C81          C82   1.400       .  A
C81          C86   1.401       .  A
C81          H91   1.085       .  S
C82          C87   1.479       .  S
C82          C83   1.409       .  A
C83          C84   1.404       .  A
C83          C88   1.506       .  S
C84          C85   1.406       .  A
C84          H89   1.084       .  S
C85          C86   1.417       .  A
C86          C90   1.507       .  S
C87          C92   1.409       .  A
C87          C96   1.398       .  A
C88         H104   1.110       .  S
C88         H105   1.110       .  S
C88         H106   1.111       .  S
C90         H101   1.110       .  S
C90         H102   1.111       .  S
C90         H103   1.103       .  S
C92          C93   1.406       .  A
C92          C97   1.506       .  S
C93          C94   1.407       .  A
C93          H98   1.083       .  S
C94          C95   1.421       .  A
C95          C96   1.400       .  A
C95          C99   1.509       .  S
C96         H100   1.084       .  S
C97         H107   1.111       .  S
C97         H108   1.110       .  S
C97         H109   1.111       .  S
C99         H110   1.111       .  S
C99         H111   1.107       .  S
C99         H112   1.111       .  S
C113        C114   1.399       .  A
C113        C118   1.403       .  A
C113        H123   1.085       .  S
C114        C119   1.478       .  S
C114        C115   1.408       .  A
C115        C116   1.401       .  A
C115        C120   1.507       .  S
C116        C117   1.407       .  A
C116        H121   1.084       .  S
C117        C118   1.421       .  A
C118        C122   1.508       .  S
C119        C124   1.408       .  A
C119        C128   1.400       .  A
C120        H136   1.110       .  S
C120        H137   1.111       .  S
C120        H138   1.111       .  S
C122        H133   1.110       .  S
C122        H134   1.110       .  S
C122        H135   1.101       .  S
C124        C125   1.403       .  A
C124        C129   1.506       .  S
C125        C126   1.406       .  A
C125        H130   1.084       .  S
C126        C127   1.419       .  A
C127        C128   1.401       .  A
C127        C131   1.509       .  S
C128        H132   1.085       .  S
C129        H139   1.111       .  S
C129        H140   1.110       .  S
C129        H141   1.110       .  S
C131        H142   1.110       .  S
C131        H143   1.106       .  S
C131        H144   1.111       .  S
C145        C146   1.399       .  A
C145        C150   1.401       .  A
C145        H155   1.085       .  S
C146        C151   1.477       .  S
C146        C147   1.411       .  A
C147        C148   1.403       .  A
C147        C152   1.507       .  S
C148        C149   1.402       .  A
C148        H153   1.085       .  S
C149        C150   1.415       .  A
C150        C154   1.508       .  S
C151        C156   1.409       .  A
C151        C160   1.401       .  A
C152        H168   1.110       .  S
C152        H169   1.109       .  S
C152        H170   1.111       .  S
C154        H165   1.110       .  S
C154        H166   1.110       .  S
C154        H167   1.108       .  S
C156        C157   1.403       .  A
C156        C161   1.506       .  S
C157        C158   1.404       .  A
C157        H162   1.084       .  S
C158        C159   1.415       .  A
C159        C160   1.401       .  A
C159        C163   1.509       .  S
C160        H164   1.085       .  S
C161        H171   1.111       .  S
C161        H172   1.110       .  S
C161        H173   1.109       .  S
C163        H174   1.110       .  S
C163        H175   1.107       .  S
C163        H176   1.111       .  S
C177        C178   1.398       .  A
C177        C182   1.404       .  A
C177        H187   1.084       .  S
C178        C183   1.478       .  S
C178        C179   1.409       .  A
C179        C180   1.403       .  A
C179        C184   1.507       .  S
C180        C181   1.406       .  A
C180        H185   1.084       .  S
C181        C182   1.421       .  A
C182        C186   1.508       .  S
C183        C188   1.409       .  A
C183        C192   1.400       .  A
C184        H200   1.110       .  S
C184        H201   1.110       .  S
C184        H202   1.111       .  S
C186        H197   1.111       .  S
C186        H198   1.110       .  S
C186        H199   1.108       .  S
C188        C189   1.400       .  A
C188        C193   1.507       .  S
C189        C190   1.406       .  A
C189        H194   1.084       .  S
C190        C191   1.419       .  A
C191        C192   1.405       .  A
C191        C195   1.507       .  S
C192        H196   1.084       .  S
C193        H203   1.111       .  S
C193        H204   1.110       .  S
C193        H205   1.110       .  S
C195        H206   1.110       .  S
C195        H207   1.110       .  S
C195        H208   1.111       .  S
C209        C210   1.402       .  A
C209        C214   1.401       .  A
C209        H219   1.085       .  S
C210        C215   1.480       .  S
C210        C211   1.410       .  A
C211        C212   1.402       .  A
C211        C216   1.506       .  S
C212        C213   1.405       .  A
C212        H217   1.084       .  S
C213        C214   1.416       .  A
C214        C218   1.509       .  S
C215        C220   1.412       .  A
C215        C224   1.402       .  A
C216        H232   1.109       .  S
C216        H233   1.110       .  S
C216        H234   1.111       .  S
C218        H229   1.111       .  S
C218        H230   1.109       .  S
C218        H231   1.106       .  S
C220        C221   1.400       .  A
C220        C225   1.508       .  S
C221        C222   1.402       .  A
C221        H226   1.085       .  S
C222        C223   1.415   1_455  A
C223        C224   1.404   1_655  A
C223        C227   1.507       .  S
C224        H228   1.085       .  S
C225        H235   1.111       .  S
C225        H236   1.109       .  S
C225        H237   1.110       .  S
C227        H238   1.110       .  S
C227        H239   1.106       .  S
C227        H240   1.110       .  S
C241        C242   1.400       .  A
C241        C246   1.402       .  A
C241        H251   1.085       .  S
C242        C247   1.474       .  S
C242        C243   1.407       .  A
C243        C244   1.399       .  A
C243        C248   1.507       .  S
C244        C245   1.405       .  A
C244        H249   1.084       .  S
C245        C246   1.417       .  A
C246        C250   1.507       .  S
C247        C252   1.408       .  A
C247        C256   1.399       .  A
C248        H264   1.110       .  S
C248        H265   1.110       .  S
C248        H266   1.111       .  S
C250        H261   1.110       .  S
C250        H262   1.111       .  S
C250        H263   1.102       .  S
C252        C253   1.402   1_455  A
C252        C257   1.506   1_455  S
C253        C254   1.405   1_655  A
C253        H258   1.084       .  S
C254        C255   1.417       .  A
C255        C256   1.400       .  A
C255        C259   1.509       .  S
C256        H260   1.085       .  S
C257        H267   1.111       .  S
C257        H268   1.110   1_655  S
C257        H269   1.110       .  S
C259        H270   1.110       .  S
C259        H271   1.106       .  S
C259        H272   1.111       .  S
C273        C274   1.400       .  A
C273        C278   1.402       .  A
C273        H283   1.085       .  S
C274        C279   1.482       .  S
C274        C275   1.411       .  A
C275        C276   1.405       .  A
C275        C280   1.506       .  S
C276        C277   1.404       .  A
C276        H281   1.084       .  S
C277        C278   1.416       .  A
C278        C282   1.507       .  S
C279        C284   1.411       .  A
C279        C288   1.400       .  A
C280        H296   1.110       .  S
C280        H297   1.110       .  S
C280        H298   1.111       .  S
C282        H293   1.110       .  S
C282        H294   1.111       .  S
C282        H295   1.108       .  S
C284        C285   1.404       .  A
C284        C289   1.507       .  S
C285        C286   1.405       .  A
C285        H290   1.085       .  S
C286        C287   1.421       .  A
C287        C288   1.404       .  A
C287        C291   1.509       .  S
C288        H292   1.085       .  S
C289        H299   1.111       .  S
C289        H300   1.110       .  S
C289        H301   1.110       .  S
C291        H302   1.110       .  S
C291        H303   1.106       .  S
C291        H304   1.111       .  S
C305        C306   1.397       .  A
C305        C310   1.401       .  A
C305        H315   1.085       .  S
C306        C311   1.480       .  S
C306        C307   1.408       .  A
C307        C308   1.406       .  A
C307        C312   1.506       .  S
C308        C309   1.410       .  A
C308        H313   1.084       .  S
C309        C310   1.423       .  A
C310        C314   1.508       .  S
C311        C316   1.409       .  A
C311        C320   1.400       .  A
C312        H328   1.110       .  S
C312        H329   1.110       .  S
C312        H330   1.111       .  S
C314        H325   1.111       .  S
C314        H326   1.109       .  S
C314        H327   1.110       .  S
C316        C317   1.403       .  A
C316        C321   1.506       .  S
C317        C318   1.406       .  A
C317        H322   1.084       .  S
C318        C319   1.419       .  A
C319        C320   1.403       .  A
C319        C323   1.507       .  S
C320        H324   1.085       .  S
C321        H331   1.111       .  S
C321        H332   1.110       .  S
C321        H333   1.110       .  S
C323        H334   1.111       .  S
C323        H335   1.102       .  S
C323        H336   1.110       .  S
C337        C338   1.399       .  A
C337        C342   1.402       .  A
C337        H347   1.085       .  S
C338        C343   1.481       .  S
C338        C339   1.409       .  A
C339        C340   1.405       .  A
C339        C344   1.506       .  S
C340        C341   1.407       .  A
C340        H345   1.084       .  S
C341        C342   1.420       .  A
C342        C346   1.508       .  S
C343        C348   1.408       .  A
C343        C352   1.396       .  A
C344        H360   1.110       .  S
C344        H361   1.110       .  S
C344        H362   1.111       .  S
C346        H357   1.109       .  S
C346        H358   1.111       .  S
C346        H359   1.110       .  S
C348        C349   1.405   1_545  A
C348        C353   1.506   1_545  S
C349        C350   1.410       .  A
C349        H354   1.083       .  S
C350        C351   1.428   1_565  A
C351        C352   1.402       .  A
C351        C355   1.510       .  S
C352        H356   1.085       .  S
C353        H363   1.111       .  S
C353        H364   1.109   1_565  S
C353        H365   1.111       .  S
C355        H366   1.109       .  S
C355        H368   1.111       .  S
C355        H831   1.110       .  S
H367        C819   1.110       .  S
C369        C370   1.399       .  A
C369        C374   1.397       .  A
C369        H379   1.085       .  S
C370        C375   1.477       .  S
C370        C371   1.410       .  A
C371        C372   1.405   1_545  A
C371        C376   1.505   1_545  S
C372        C373   1.403   1_565  A
C372        H377   1.084       .  S
C373        C374   1.416       .  A
C374        C378   1.509       .  S
C375        C380   1.408       .  A
C375        C384   1.401       .  A
C376        H392   1.110   1_565  S
C376        H393   1.110       .  S
C376        H394   1.111       .  S
C378        H389   1.111       .  S
C378        H390   1.110       .  S
C378        H391   1.107       .  S
C380        C381   1.400       .  A
C380        C385   1.507       .  S
C381        C382   1.406       .  A
C381        H386   1.084       .  S
C382        C383   1.418       .  A
C383        C384   1.403       .  A
C383        C387   1.508       .  S
C384        H388   1.085       .  S
C385        H395   1.111       .  S
C385        H396   1.110       .  S
C385        H397   1.110       .  S
C387        H398   1.111       .  S
C387        H399   1.104       .  S
C387        H400   1.110       .  S
C401        C402   1.398       .  A
C401        C406   1.398       .  A
C401        H411   1.085       .  S
C402        C407   1.475       .  S
C402        C403   1.410       .  A
C403        C404   1.404       .  A
C403        C408   1.506       .  S
C404        C405   1.404       .  A
C404        H409   1.084       .  S
C405        C406   1.416       .  A
C406        C410   1.508       .  S
C407        C412   1.409       .  A
C407        C416   1.398       .  A
C408        H424   1.110       .  S
C408        H425   1.110       .  S
C408        H426   1.111       .  S
C410        H421   1.110       .  S
C410        H422   1.111       .  S
C410        H423   1.108       .  S
C412        C413   1.401       .  A
C412        C417   1.507       .  S
C413        C414   1.405       .  A
C413        H418   1.084       .  S
C414        C415   1.421       .  A
C415        C416   1.402       .  A
C415        C419   1.509       .  S
C416        H420   1.085       .  S
C417        H427   1.111       .  S
C417        H428   1.110       .  S
C417        H429   1.110       .  S
C419        H430   1.110       .  S
C419        H431   1.104       .  S
C419        H432   1.111       .  S
C433        C434   1.398       .  A
C433        C438   1.400       .  A
C433        H443   1.085       .  S
C434        C439   1.478       .  S
C434        C435   1.410       .  A
C435        C436   1.405       .  A
C435        C440   1.505       .  S
C436        C437   1.405       .  A
C436        H441   1.084       .  S
C437        C438   1.419       .  A
C438        C442   1.510       .  S
C439        C444   1.408       .  A
C439        C448   1.396       .  A
C440        H456   1.110       .  S
C440        H457   1.110       .  S
C440        H458   1.111       .  S
C442        H453   1.109       .  S
C442        H454   1.111       .  S
C442        H919   1.110       .  S
C444        C445   1.404       .  A
C444        C449   1.507       .  S
C445        C446   1.409       .  A
C445        H450   1.084       .  S
C446        C447   1.426       .  A
C447        C448   1.402       .  A
C447        C451   1.510       .  S
C448        H452   1.085       .  S
C449        H459   1.111       .  S
C449        H460   1.110       .  S
C449        H461   1.110       .  S
C451        H462   1.111       .  S
C451        H463   1.110       .  S
C451        H464   1.109       .  S
H455        C906   1.110       .  S
C465        N466   1.361       .  A
C465        N470   1.352       .  A
C465        C901   1.479       .  S
C467        N468   1.361   1_554  A
C467        C507   1.468       .  S
N468        C469   1.356       .  A
C469        C869   1.471       .  S
C471        N472   1.355       .  A
C471        N476   1.353       .  A
C471        C837   1.471   1_565  S
N472        C473   1.359       .  A
N474        C475   1.363       .  A
C475        C814   1.498       .  S
C477        N478   1.357   1_556  A
C477        N482   1.361       .  A
C477        C773   1.491       .  S
C479        N480   1.357       .  A
C479        C741   1.477       .  S
C481        N482   1.361   1_554  A
O483       Cr501   1.967       .  S
O483        C491   1.259       .  A
O484       Cr501   2.003       .  S
O484        C485   1.262       .  A
C485        C805   1.485       .  S
C485        O486   1.260       .  A
O486       Cr502   1.979       .  S
O487       Cr502   2.013       .  S
O487        C488   1.267       .  A
C488        C782   1.479       .  S
C488        O489   1.261       .  A
O489       Cr503   1.974       .  S
O490       Cr503   2.013       .  S
O490        C491   1.267       .  A
C491        C878   1.477       .  S
O492       Cr501   2.000       .  S
O492        C500   1.262       .  A
O493       Cr501   1.963       .  S
O493        C494   1.258       .  A
C494        C846   1.477       .  S
C494        O495   1.268       .  A
O495       Cr502   2.016       .  S
O496       Cr502   1.979       .  S
O496        C497   1.260       .  A
C497        C750   1.482       .  S
C497        O498   1.265       .  A
O498       Cr503   2.006       .  S
O499       Cr503   1.984       .  S
O499        C500   1.262       .  A
C500        C910   1.492       .  S
Cr501       O504   1.769       .  S
Cr502       O504   1.773       .  S
Cr503       O504   1.771       .  S
C505        N506   1.355       .  A
C505        N510   1.354   1_656  A
C505        C718   1.475   1_655  S
N506        C507   1.358   1_556  A
N508        C509   1.360       .  A
C509        C686   1.471   1_655  S
C511        N512   1.355       .  A
C511        N516   1.357       .  A
C511        C613   1.470       .  S
C513        N514   1.360       .  A
C513        C645   1.485       .  S
C515        N516   1.359       .  A
C517        N518   1.357       .  A
C517        N522   1.354       .  A
C517        C590   1.479       .  S
N518        C519   1.359       .  A
N520        C521   1.362       .  A
C521        C558   1.485       .  S
O523       Cr541   1.960       .  S
O523        C531   1.259       .  A
O524       Cr541   2.003       .  S
O524        C525   1.262       .  A
C525        C622   1.469       .  S
C525        O526   1.259       .  A
O526       Cr542   1.979       .  S
O527       Cr542   2.012       .  S
O527        C528   1.266       .  A
C528        C549   1.478       .  S
C528        O529   1.259       .  A
O529       Cr543   1.970       .  S
O530       Cr543   2.020       .  S
O530        C531   1.270       .  A
C531        C709   1.473       .  S
O532       Cr541   1.997       .  S
O532        C540   1.261       .  A
O533       Cr541   1.966       .  S
O533        C534   1.259       .  A
C534        C654   1.483       .  S
C534        O535   1.268       .  A
O535       Cr542   2.018       .  S
O536       Cr542   1.970       .  S
O536        C537   1.260       .  A
C537        C581   1.481       .  S
C537        O538   1.267       .  A
O538       Cr543   2.013       .  S
O539       Cr543   1.979       .  S
O539        C540   1.258       .  A
C540        C677   1.472       .  S
Cr541       O544   1.768       .  S
Cr542       O544   1.767       .  S
Cr543       O544   1.770       .  S
C545        C546   1.400       .  A
C545        C550   1.401       .  A
C545        H555   1.085       .  S
C546        C551   1.479       .  S
C546        C547   1.409       .  A
C547        C548   1.404       .  A
C547        C552   1.506       .  S
C548        C549   1.406       .  A
C548        H553   1.084       .  S
C549        C550   1.417       .  A
C550        C554   1.507       .  S
C551        C556   1.409       .  A
C551        C560   1.398       .  A
C552        H568   1.110       .  S
C552        H569   1.110       .  S
C552        H570   1.111       .  S
C554        H565   1.110       .  S
C554        H566   1.111       .  S
C554        H567   1.103       .  S
C556        C557   1.406       .  A
C556        C561   1.506       .  S
C557        C558   1.407       .  A
C557        H562   1.083       .  S
C558        C559   1.421       .  A
C559        C560   1.400       .  A
C559        C563   1.509       .  S
C560        H564   1.084       .  S
C561        H571   1.111       .  S
C561        H572   1.110       .  S
C561        H573   1.111       .  S
C563        H574   1.111       .  S
C563        H575   1.107       .  S
C563        H576   1.111       .  S
C577        C578   1.399       .  A
C577        C582   1.403       .  A
C577        H587   1.085       .  S
C578        C583   1.478       .  S
C578        C579   1.408       .  A
C579        C580   1.401       .  A
C579        C584   1.507       .  S
C580        C581   1.407       .  A
C580        H585   1.084       .  S
C581        C582   1.421       .  A
C582        C586   1.508       .  S
C583        C588   1.408       .  A
C583        C592   1.400       .  A
C584        H600   1.110       .  S
C584        H601   1.111       .  S
C584        H602   1.111       .  S
C586        H597   1.110       .  S
C586        H598   1.110       .  S
C586        H599   1.101       .  S
C588        C589   1.403       .  A
C588        C593   1.506       .  S
C589        C590   1.406       .  A
C589        H594   1.084       .  S
C590        C591   1.419       .  A
C591        C592   1.401       .  A
C591        C595   1.509       .  S
C592        H596   1.085       .  S
C593        H603   1.111       .  S
C593        H604   1.110       .  S
C593        H605   1.110       .  S
C595        H606   1.110       .  S
C595        H607   1.106       .  S
C595        H608   1.111       .  S
C609        C610   1.399       .  A
C609        C614   1.401       .  A
C609        H619   1.085       .  S
C610        C615   1.477       .  S
C610        C611   1.411       .  A
C611        C612   1.403       .  A
C611        C616   1.507       .  S
C612        C613   1.402       .  A
C612        H617   1.085       .  S
C613        C614   1.415       .  A
C614        C618   1.508       .  S
C615        C620   1.409       .  A
C615        C624   1.401       .  A
C616        H632   1.110       .  S
C616        H633   1.109       .  S
C616        H634   1.111       .  S
C618        H629   1.110       .  S
C618        H630   1.110       .  S
C618        H631   1.108       .  S
C620        C621   1.403       .  A
C620        C625   1.506       .  S
C621        C622   1.404       .  A
C621        H626   1.084       .  S
C622        C623   1.415       .  A
C623        C624   1.401       .  A
C623        C627   1.509       .  S
C624        H628   1.085       .  S
C625        H635   1.111       .  S
C625        H636   1.110       .  S
C625        H637   1.109       .  S
C627        H638   1.110       .  S
C627        H639   1.107       .  S
C627        H640   1.111       .  S
C641        C642   1.398       .  A
C641        C646   1.404       .  A
C641        H651   1.084       .  S
C642        C647   1.478       .  S
C642        C643   1.409       .  A
C643        C644   1.403       .  A
C643        C648   1.507       .  S
C644        C645   1.406       .  A
C644        H649   1.084       .  S
C645        C646   1.421       .  A
C646        C650   1.508       .  S
C647        C652   1.409       .  A
C647        C656   1.400       .  A
C648        H664   1.110       .  S
C648        H665   1.110       .  S
C648        H666   1.111       .  S
C650        H661   1.111       .  S
C650        H662   1.110       .  S
C650        H663   1.108       .  S
C652        C653   1.400       .  A
C652        C657   1.507       .  S
C653        C654   1.406       .  A
C653        H658   1.084       .  S
C654        C655   1.419       .  A
C655        C656   1.405       .  A
C655        C659   1.507       .  S
C656        H660   1.084       .  S
C657        H667   1.111       .  S
C657        H668   1.110       .  S
C657        H669   1.110       .  S
C659        H670   1.110       .  S
C659        H671   1.110       .  S
C659        H672   1.111       .  S
C673        C674   1.402       .  A
C673        C678   1.401       .  A
C673        H683   1.085       .  S
C674        C679   1.480       .  S
C674        C675   1.410       .  A
C675        C676   1.402       .  A
C675        C680   1.506       .  S
C676        C677   1.405       .  A
C676        H681   1.084       .  S
C677        C678   1.416       .  A
C678        C682   1.509       .  S
C679        C684   1.412       .  A
C679        C688   1.402       .  A
C680        H696   1.109       .  S
C680        H697   1.110       .  S
C680        H698   1.111       .  S
C682        H693   1.111       .  S
C682        H694   1.109       .  S
C682        H695   1.106       .  S
C684        C685   1.400       .  A
C684        C689   1.508       .  S
C685        C686   1.402       .  A
C685        H690   1.085       .  S
C686        C687   1.415   1_455  A
C687        C688   1.404   1_655  A
C687        C691   1.507       .  S
C688        H692   1.085       .  S
C689        H699   1.111       .  S
C689        H700   1.109       .  S
C689        H701   1.110       .  S
C691        H702   1.110       .  S
C691        H703   1.106       .  S
C691        H704   1.110       .  S
C705        C706   1.400       .  A
C705        C710   1.402       .  A
C705        H715   1.085       .  S
C706        C711   1.474       .  S
C706        C707   1.407       .  A
C707        C708   1.399       .  A
C707        C712   1.507       .  S
C708        C709   1.405       .  A
C708        H713   1.084       .  S
C709        C710   1.417       .  A
C710        C714   1.507       .  S
C711        C716   1.408       .  A
C711        C720   1.399       .  A
C712        H728   1.110       .  S
C712        H729   1.110       .  S
C712        H730   1.111       .  S
C714        H725   1.110       .  S
C714        H726   1.111       .  S
C714        H727   1.102       .  S
C716        C717   1.402   1_455  A
C716        C721   1.506   1_455  S
C717        C718   1.405   1_655  A
C717        H722   1.084       .  S
C718        C719   1.417       .  A
C719        C720   1.400       .  A
C719        C723   1.509       .  S
C720        H724   1.085       .  S
C721        H731   1.111       .  S
C721        H732   1.110   1_655  S
C721        H733   1.110       .  S
C723        H734   1.110       .  S
C723        H735   1.106       .  S
C723        H736   1.111       .  S
C737        C738   1.400       .  A
C737        C742   1.402       .  A
C737        H747   1.085       .  S
C738        C743   1.482       .  S
C738        C739   1.411       .  A
C739        C740   1.405       .  A
C739        C744   1.506       .  S
C740        C741   1.404       .  A
C740        H745   1.084       .  S
C741        C742   1.416       .  A
C742        C746   1.507       .  S
C743        C748   1.411       .  A
C743        C752   1.400       .  A
C744        H760   1.110       .  S
C744        H761   1.110       .  S
C744        H762   1.111       .  S
C746        H757   1.110       .  S
C746        H758   1.111       .  S
C746        H759   1.108       .  S
C748        C749   1.404       .  A
C748        C753   1.507       .  S
C749        C750   1.405       .  A
C749        H754   1.085       .  S
C750        C751   1.421       .  A
C751        C752   1.404       .  A
C751        C755   1.509       .  S
C752        H756   1.085       .  S
C753        H763   1.111       .  S
C753        H764   1.110       .  S
C753        H765   1.110       .  S
C755        H766   1.110       .  S
C755        H767   1.106       .  S
C755        H768   1.111       .  S
C769        C770   1.397       .  A
C769        C774   1.401       .  A
C769        H779   1.085       .  S
C770        C775   1.480       .  S
C770        C771   1.408       .  A
C771        C772   1.406       .  A
C771        C776   1.506       .  S
C772        C773   1.410       .  A
C772        H777   1.084       .  S
C773        C774   1.423       .  A
C774        C778   1.508       .  S
C775        C780   1.409       .  A
C775        C784   1.400       .  A
C776        H792   1.110       .  S
C776        H793   1.110       .  S
C776        H794   1.111       .  S
C778        H789   1.111       .  S
C778        H790   1.109       .  S
C778        H791   1.110       .  S
C780        C781   1.403       .  A
C780        C785   1.506       .  S
C781        C782   1.406       .  A
C781        H786   1.084       .  S
C782        C783   1.419       .  A
C783        C784   1.403       .  A
C783        C787   1.507       .  S
C784        H788   1.085       .  S
C785        H795   1.111       .  S
C785        H796   1.110       .  S
C785        H797   1.110       .  S
C787        H798   1.111       .  S
C787        H799   1.102       .  S
C787        H800   1.110       .  S
C801        C802   1.399       .  A
C801        C806   1.402       .  A
C801        H811   1.085       .  S
C802        C807   1.481       .  S
C802        C803   1.409       .  A
C803        C804   1.405       .  A
C803        C808   1.506       .  S
C804        C805   1.407       .  A
C804        H809   1.084       .  S
C805        C806   1.420       .  A
C806        C810   1.508       .  S
C807        C812   1.408       .  A
C807        C816   1.396       .  A
C808        H824   1.110       .  S
C808        H825   1.110       .  S
C808        H826   1.111       .  S
C810        H821   1.109       .  S
C810        H822   1.111       .  S
C810        H823   1.110       .  S
C812        C813   1.405   1_545  A
C812        C817   1.506   1_545  S
C813        C814   1.410       .  A
C813        H818   1.083       .  S
C814        C815   1.428   1_565  A
C815        C816   1.402       .  A
C815        C819   1.510       .  S
C816        H820   1.085       .  S
C817        H827   1.111       .  S
C817        H828   1.109   1_565  S
C817        H829   1.111       .  S
C819        H830   1.109       .  S
C819        H832   1.111       .  S
C833        C834   1.399       .  A
C833        C838   1.397       .  A
C833        H843   1.085       .  S
C834        C839   1.477       .  S
C834        C835   1.410       .  A
C835        C836   1.405   1_545  A
C835        C840   1.505   1_545  S
C836        C837   1.403   1_565  A
C836        H841   1.084       .  S
C837        C838   1.416       .  A
C838        C842   1.509       .  S
C839        C844   1.408       .  A
C839        C848   1.401       .  A
C840        H856   1.110   1_565  S
C840        H857   1.110       .  S
C840        H858   1.111       .  S
C842        H853   1.111       .  S
C842        H854   1.110       .  S
C842        H855   1.107       .  S
C844        C845   1.400       .  A
C844        C849   1.507       .  S
C845        C846   1.406       .  A
C845        H850   1.084       .  S
C846        C847   1.418       .  A
C847        C848   1.403       .  A
C847        C851   1.508       .  S
C848        H852   1.085       .  S
C849        H859   1.111       .  S
C849        H860   1.110       .  S
C849        H861   1.110       .  S
C851        H862   1.111       .  S
C851        H863   1.104       .  S
C851        H864   1.110       .  S
C865        C866   1.398       .  A
C865        C870   1.398       .  A
C865        H875   1.085       .  S
C866        C871   1.475       .  S
C866        C867   1.410       .  A
C867        C868   1.404       .  A
C867        C872   1.506       .  S
C868        C869   1.404       .  A
C868        H873   1.084       .  S
C869        C870   1.416       .  A
C870        C874   1.508       .  S
C871        C876   1.409       .  A
C871        C880   1.398       .  A
C872        H888   1.110       .  S
C872        H889   1.110       .  S
C872        H890   1.111       .  S
C874        H885   1.110       .  S
C874        H886   1.111       .  S
C874        H887   1.108       .  S
C876        C877   1.401       .  A
C876        C881   1.507       .  S
C877        C878   1.405       .  A
C877        H882   1.084       .  S
C878        C879   1.421       .  A
C879        C880   1.402       .  A
C879        C883   1.509       .  S
C880        H884   1.085       .  S
C881        H891   1.111       .  S
C881        H892   1.110       .  S
C881        H893   1.110       .  S
C883        H894   1.110       .  S
C883        H895   1.104       .  S
C883        H896   1.111       .  S
C897        C898   1.398       .  A
C897        C902   1.400       .  A
C897        H907   1.085       .  S
C898        C903   1.478       .  S
C898        C899   1.410       .  A
C899        C900   1.405       .  A
C899        C904   1.505       .  S
C900        C901   1.405       .  A
C900        H905   1.084       .  S
C901        C902   1.419       .  A
C902        C906   1.510       .  S
C903        C908   1.408       .  A
C903        C912   1.396       .  A
C904        H920   1.110       .  S
C904        H921   1.110       .  S
C904        H922   1.111       .  S
C906        H917   1.109       .  S
C906        H918   1.111       .  S
C908        C909   1.404       .  A
C908        C913   1.507       .  S
C909        C910   1.409       .  A
C909        H914   1.084       .  S
C910        C911   1.426       .  A
C911        C912   1.402       .  A
C911        C915   1.510       .  S
C912        H916   1.085       .  S
C913        H923   1.111       .  S
C913        H924   1.110       .  S
C913        H925   1.110       .  S
C915        H926   1.111       .  S
C915        H927   1.110       .  S
C915        H928   1.109       .  S
