geometry optimzed in LAMMPS
_audit_creation_date              2020-12-01 
_audit_creation_method            'lammps2cif' 
_symmetry_space_group_name_H-M    'P1' 
_symmetry_Int_Tables_number       1 
_symmetry_cell_setting            triclinic 
loop_ 
_symmetry_equiv_pos_as_xyz 
  x,y,z 
_cell_length_a                    39.27697828 
_cell_length_b                    36.99274834037801 
_cell_length_c                    25.46538173059976 
_cell_angle_alpha                 90.0726323870314 
_cell_angle_beta                  90.40119817497816 
_cell_angle_gamma                 121.20767616035356 
loop_ 
_atom_site_label 
_atom_site_type_symbol 
_atom_site_fract_x 
_atom_site_fract_y 
_atom_site_fract_z 
_atom_site_charge 
Fe1        Fe  0.27691181  0.14379007  0.24412101     1.65800
Fe2        Fe  0.18869979  0.13688148  0.26128327     1.73200
Fe3        Fe  0.19407823  0.04688441  0.25412208     1.54400
O4          O  0.23132185  0.04494040  0.19717071    -0.80600
O5          O  0.16086976  0.10199834  0.32589497    -0.78900
O6          O  0.27538173  0.11187676  0.17728457    -0.83100
O7          O  0.28806975  0.10601440  0.29166546    -0.78000
O8          O  0.15442543  0.03984133  0.19555745    -0.79700
O9          O  0.22926875  0.18370275  0.31260126    -0.82500
C10         C  0.26814305  0.07364285  0.32005951     0.98300
C11         C  0.25935936  0.07255591  0.16894790     1.05700
O12         O  0.21964279  0.10911924  0.25273404    -1.11500
O13         O  0.21309416  0.17601313  0.19701106    -0.73900
O14         O  0.27451740  0.18766220  0.19637131    -0.77400
O15         O  0.23087011  0.04879041  0.31443657    -0.78100
C16         C  0.24843767  0.19561193  0.18013522     0.97200
O17         O  0.28262028  0.17733095  0.31085284    -0.76000
O18         O  0.14377135  0.09254799  0.21307864    -0.81200
C19         C  0.14407011  0.06276070  0.33428249     0.99800
C20         C  0.13484167  0.05822971  0.18964745     1.05700
O21         O  0.15270753  0.03873728  0.30989430    -0.76900
C22         C  0.26280949  0.19203242  0.33072939     1.04000
C23         C  0.03676284  0.03235737  0.12066952     0.87600
C24         C  0.01360956  0.32020687  0.13772174    -0.52700
C25         C  0.31927200  0.29585215  0.10948655     0.10500
C26         C  0.30836170  0.31979921  0.06942071     0.21400
C27         C  0.04323476  0.02908604  0.06263697    -0.53400
C28         C  0.34559690  0.34339512  0.03409343     0.10600
C29         C  0.01528719  0.05681026  0.12308555    -0.52900
C30         C  0.30556637  0.01645948  0.10771403     0.11100
H31         H  0.02036186  0.30797360  0.17248303     0.15700
H32         H  0.27996314  0.29936809  0.04795830     0.01400
H33         H  0.07284033  0.03989925  0.04839042     0.16000
H34         H  0.02538802  0.08473505  0.14753118     0.15800
C35         C  0.04611227  0.03680534  0.39577843     0.87600
C36         C  0.02304887  0.05918246  0.38702281    -0.52700
C37         C  0.31342702  0.02166247  0.40016948     0.10500
C38         C  0.31346387  0.32915795  0.43646701     0.21400
C39         C  0.04669618  0.03142354  0.45451038    -0.53400
C40         C  0.34586860  0.34159659  0.47989834     0.10600
C41         C  0.01435830  0.29488123  0.39099732    -0.52900
C42         C  0.31390250  0.29389767  0.40460182     0.11100
H43         H  0.03414631  0.08748809  0.36335396     0.15700
H44         H  0.28362854  0.32021652  0.45114574     0.01400
H45         H  0.07450614  0.04295944  0.47567282     0.16000
H46         H  0.02134834  0.27614951  0.36537680     0.15800
C47         C  0.27757495  0.06001913  0.12768085    -0.15400
C48         C  0.27119301  0.02072941  0.12198692    -0.30500
H49         H  0.30369770  0.08594720  0.10908965     0.13700
H50         H  0.24533186  0.99368431  0.13916974     0.14200
C51         C  0.07440687  0.05290038  0.15323036    -0.15400
C52         C  0.09924429  0.03810780  0.15534872    -0.30500
H53         H  0.08140662  0.08091431  0.17582489     0.13700
H54         H  0.09228732  0.00987989  0.13330422     0.14200
C55         C  0.29673391  0.25016084  0.12088449    -0.15900
C56         C  0.26073826  0.23133144  0.14334491    -0.30500
H57         H  0.31443711  0.23541718  0.12454075     0.13700
H58         H  0.24318413  0.24632218  0.14170708     0.14200
C59         C  0.29119370  0.06630405  0.35997979    -0.15400
C60         C  0.28142937  0.02839607  0.37971743    -0.30500
H61         H  0.32071175  0.09331554  0.36803090     0.13700
H62         H  0.25171073  0.00114146  0.37391053     0.14200
C63         C  0.08652382  0.05986045  0.37164895    -0.15400
C64         C  0.11021134  0.04370061  0.36995247    -0.30500
H65         H  0.09525948  0.08923756  0.35135057     0.13700
H66         H  0.10075415  0.01312791  0.38731743     0.14200
C67         C  0.28171655  0.22090554  0.37551858    -0.15400
C68         C  0.27829730  0.25461258  0.38491260    -0.30500
H69         H  0.30640507  0.21999643  0.39374536     0.13700
H70         H  0.25389785  0.25671063  0.36810879     0.14200
Fe71       Fe  0.27807635  0.13131335  0.72905235     1.65800
Fe72       Fe  0.19718379  0.14043094  0.75109575     1.73200
Fe73       Fe  0.18792212  0.04305683  0.74755496     1.54400
O74         O  0.20928621  0.03549853  0.67692916    -0.80600
O75         O  0.15724759  0.10154600  0.80715201    -0.78900
O76         O  0.27294886  0.08668614  0.67387374    -0.83100
O77         O  0.28474732  0.10056766  0.79038360    -0.78000
O78         O  0.14163810  0.04180425  0.70484768    -0.79700
O79         O  0.23733734  0.17621496  0.81027632    -0.82500
C80         C  0.26444570  0.06411744  0.80980823     0.98300
C81         C  0.24285326  0.05411785  0.65443985     1.05700
O82         O  0.22080407  0.10482861  0.74229158    -1.11500
O83         O  0.23374577  0.18438689  0.69462666    -0.73900
O84         O  0.27636998  0.16568834  0.66745339    -0.77400
O85         O  0.22955251  0.03703213  0.79345081    -0.78100
C86         C  0.26147612  0.18883172  0.66454626     0.97200
O87         O  0.29256698  0.17991736  0.78172724    -0.76000
O88         O  0.15330563  0.10744588  0.69492428    -0.81200
C89         C  0.14724362  0.06657073  0.82895621     0.99800
C90         C  0.13227914  0.06778213  0.68691836     1.05700
O91         O  0.16227587  0.04461105  0.81691534    -0.76900
C92         C  0.27464741  0.19137025  0.81270266     1.04000
C93         C  0.02861929  0.03366496  0.62610415     0.87600
C94         C  0.00278291  0.31217578  0.64590901    -0.52700
C95         C  0.30142683  0.29777290  0.61064517     0.10500
C96         C  0.29923494  0.32400335  0.56548470     0.21400
C97         C  0.03788836  0.03682863  0.56760014    -0.53400
C98         C  0.33980824  0.34389797  0.53753388     0.10600
C99         C  0.99434306  0.04307836  0.62895263    -0.52900
C100        C  0.29630248  0.02117864  0.59273462     0.11100
H101        H  0.00943798  0.29852245  0.67929278     0.15700
H102        H  0.27306004  0.30543052  0.53929016     0.01400
H103        H  0.06730967  0.05966705  0.55347510     0.16000
H104        H  0.99736589  0.07054012  0.64886131     0.15800
C105        C  0.04631265  0.03421180  0.88897934     0.87600
C106        C  0.01930729  0.05121900  0.87602688    -0.52700
C107        C  0.30840136  0.01266336  0.89236994     0.10500
C108        C  0.31043202  0.31850803  0.93546936     0.21400
C109        C  0.04838659  0.03456410  0.94835507    -0.53400
C110        C  0.34650154  0.34102119  0.97513691     0.10600
C111        C  0.02129439  0.29982293  0.87525829    -0.52900
C112        C  0.31999945  0.29114299  0.89905473     0.11100
H113        H  0.02760695  0.07737997  0.84934311     0.15700
H114        H  0.28063108  0.30069164  0.95377788     0.01400
H115        H  0.07689994  0.05262907  0.96803515     0.16000
H116        H  0.03130812  0.28551364  0.84682506     0.15800
C117        C  0.24336487  0.04247706  0.59899998    -0.15400
C118        C  0.26670612  0.03162858  0.57319740    -0.30500
H119        H  0.22024037  0.04238263  0.57516863     0.13700
H120        H  0.25918534  0.02400093  0.53187714     0.14200
C121        C  0.06698443  0.05987193  0.65795794    -0.15400
C122        C  0.09570478  0.04983859  0.65440601    -0.30500
H123        H  0.07057957  0.08483485  0.68412147     0.13700
H124        H  0.08996950  0.02325706  0.62963564     0.14200
C125        C  0.27047932  0.25381914  0.62311946    -0.15900
C126        C  0.28105091  0.22489697  0.62831293    -0.30500
H127        H  0.24218954  0.24790255  0.63792436     0.13700
H128        H  0.30951518  0.23198245  0.61245539     0.14200
C129        C  0.28500786  0.05519286  0.85183248    -0.15400
C130        C  0.27548768  0.01713203  0.87043975    -0.30500
H131        H  0.31374264  0.08223486  0.86340723     0.13700
H132        H  0.24674568  0.98911630  0.86200870     0.14200
C133        C  0.08607066  0.05904652  0.86257462    -0.15400
C134        C  0.11402133  0.04856959  0.86616814    -0.30500
H135        H  0.09083040  0.08454926  0.83661285     0.13700
H136        H  0.10878740  0.02196531  0.89027076     0.14200
C137        C  0.29993642  0.22471652  0.85118442    -0.15400
C138        C  0.28921891  0.24899906  0.87727158    -0.30500
H139        H  0.33062046  0.23250360  0.85350816     0.13700
H140        H  0.25836923  0.24078152  0.87693827     0.14200
Fe141      Fe  0.27814414  0.45517208  0.24416899     1.65800
Fe142      Fe  0.20049082  0.47086675  0.25303332     1.73200
Fe143      Fe  0.18663463  0.37202465  0.26589104     1.54400
O144        O  0.21793274  0.35411630  0.21874283    -0.80600
O145        O  0.16753404  0.44610779  0.32046256    -0.78900
O146        O  0.26627319  0.41311841  0.18322683    -0.83100
O147        O  0.27943517  0.41428720  0.29888154    -0.78000
O148        O  0.15281007  0.36772471  0.20206600    -0.79700
O149        O  0.24676644  0.51622874  0.30008322    -0.82500
C150        C  0.25580877  0.38728953  0.33203906     0.98300
C151        C  0.24483948  0.37308318  0.18494203     1.05700
O152        O  0.22174295  0.43308577  0.25466700    -1.11500
O153        O  0.23055795  0.50251349  0.18539730    -0.73900
O154        O  0.28573406  0.49984175  0.18943179    -0.77400
O155        O  0.21859257  0.37245977  0.33062942    -0.78100
C156        C  0.26560295  0.51464455  0.17034215     0.97200
O157        O  0.29383654  0.49922321  0.30335872    -0.76000
O158        O  0.15225836  0.42804805  0.20631511    -0.81200
C159        C  0.14529878  0.40792069  0.33368834     0.99800
C160        C  0.13915580  0.39076523  0.18829303     1.05700
O161        O  0.14871264  0.37846981  0.31427849    -0.76900
C162        C  0.27985570  0.52197927  0.31726496     1.04000
C163        C  0.04276906  0.36365228  0.11534837     0.87600
C164        C  0.01145748  0.63763841  0.13190621    -0.52700
C165        C  0.30120247  0.62030873  0.10472909     0.10500
C166        C  0.29592605  0.64602318  0.06096282     0.21400
C167        C  0.04705536  0.35541466  0.05812940    -0.53400
C168        C  0.33613605  0.66917672  0.03151521     0.10600
C169        C  0.02047800  0.38713070  0.11433511    -0.52900
C170        C  0.30918765  0.35549324  0.10222504     0.11100
H171        H  0.02363687  0.62264621  0.15592257     0.15700
H172        H  0.26976714  0.62644868  0.03511904     0.01400
H173        H  0.07623209  0.36556370  0.04275530     0.16000
H174        H  0.03074833  0.41674542  0.13518988     0.15800
C175        C  0.04347934  0.34183294  0.39994766     0.87600
C176        C  0.02187835  0.36330042  0.37871174    -0.52700
C177        C  0.33155627  0.36722710  0.39868734     0.10500
C178        C  0.30745425  0.64999433  0.42952338     0.21400
C179        C  0.04523628  0.34759365  0.45902243    -0.53400
C180        C  0.34165254  0.67293593  0.47084246     0.10600
C181        C  0.02346749  0.64718283  0.37449527    -0.52900
C182        C  0.32099479  0.62571131  0.39454278     0.11100
H183        H  0.03380549  0.38545910  0.34644057     0.15700
H184        H  0.27738462  0.62969942  0.44644218     0.01400
H185        H  0.07335059  0.36102039  0.47984951     0.16000
H186        H  0.03414105  0.63392184  0.34553667     0.15800
C187        C  0.25375666  0.34717061  0.15046902    -0.15400
C188        C  0.27665943  0.36352721  0.10824119    -0.30500
H189        H  0.24899595  0.31771629  0.16665805     0.13700
H190        H  0.28210669  0.39351727  0.09313381     0.14200
C191        C  0.08145934  0.38743458  0.14544090    -0.15400
C192        C  0.10518501  0.37172111  0.15159384    -0.30500
H193        H  0.08913161  0.41700482  0.16465013     0.13700
H194        H  0.09693645  0.34165307  0.13330120     0.14200
C195        C  0.27263253  0.57503418  0.11711661    -0.15900
C196        C  0.28653001  0.55030723  0.13326385    -0.30500
H197        H  0.24138952  0.56467354  0.12123078     0.13700
H198        H  0.31783007  0.56149744  0.12699996     0.14200
C199        C  0.27224724  0.37060895  0.37106469    -0.15400
C200        C  0.31181985  0.38869080  0.37644796    -0.30500
H201        H  0.25209398  0.34091392  0.39025126     0.13700
H202        H  0.33110421  0.41830027  0.35633362     0.14200
C203        C  0.08276508  0.35590502  0.37413109    -0.15400
C204        C  0.11225004  0.39651739  0.37022454    -0.30500
H205        H  0.08579272  0.33171901  0.35421210     0.13700
H206        H  0.10938798  0.42131988  0.38861096     0.14200
C207        C  0.30511255  0.55835304  0.35207926    -0.15400
C208        C  0.29268738  0.58272701  0.37352059    -0.30500
H209        H  0.33600827  0.56721966  0.35678840     0.13700
H210        H  0.26138384  0.57276198  0.37160949     0.14200
Fe211      Fe  0.27780664  0.46532590  0.73025147     1.65800
Fe212      Fe  0.19366748  0.46648440  0.75332593     1.73200
Fe213      Fe  0.19254579  0.37344435  0.75108054     1.54400
O214        O  0.21223195  0.36905973  0.67799177    -0.80600
O215        O  0.15621589  0.42518814  0.81020062    -0.78900
O216        O  0.27593962  0.41949210  0.68020825    -0.83100
O217        O  0.28816665  0.44029359  0.79509809    -0.78000
O218        O  0.14222843  0.36601533  0.71292216    -0.79700
O219        O  0.23322601  0.50569645  0.81128801    -0.82500
C220        C  0.27095308  0.40297900  0.81250093     0.98300
C221        C  0.24615718  0.38926849  0.65689060     1.05700
O222        O  0.22104828  0.43501644  0.74517316    -1.11500
O223        O  0.22726111  0.51100073  0.69485558    -0.73900
O224        O  0.26964132  0.49262652  0.66537816    -0.77400
O225        O  0.23863781  0.37304673  0.79274520    -0.78100
C226        C  0.25300506  0.51413126  0.66185528     0.97200
O227        O  0.28970819  0.51599737  0.77760552    -0.76000
O228        O  0.15060935  0.42973559  0.69803731    -0.81200
C229        C  0.14983230  0.39148774  0.83275827     0.99800
C230        C  0.13081830  0.38968464  0.69327037     1.05700
O231        O  0.16917525  0.37369959  0.82252452    -0.76900
C232        C  0.27098813  0.52516159  0.81017982     1.04000
C233        C  0.02884451  0.35862513  0.63058927     0.87600
C234        C  0.00865628  0.66196431  0.63787466    -0.52700
C235        C  0.30502785  0.62155217  0.60642342     0.10500
C236        C  0.30785094  0.65606614  0.56874238     0.21400
C237        C  0.03782151  0.35805112  0.57247722    -0.53400
C238        C  0.34045176  0.66358312  0.52825509     0.10600
C239        C  0.00075535  0.37620133  0.63158809    -0.52900
C240        C  0.29986895  0.36146291  0.59310049     0.11100
H241        H  0.01661449  0.65092295  0.67272077     0.15700
H242        H  0.27906662  0.64854951  0.55077575     0.01400
H243        H  0.06820666  0.37531690  0.55876172     0.16000
H244        H  0.00840841  0.40570660  0.65081981     0.15800
C245        C  0.04438847  0.34742184  0.88530928     0.87600
C246        C  0.01603696  0.36169913  0.86882879    -0.52700
C247        C  0.31547134  0.35413159  0.89844038     0.10500
C248        C  0.30873585  0.65534759  0.92927230     0.21400
C249        C  0.04785436  0.35274059  0.94417997    -0.53400
C250        C  0.34190354  0.67042663  0.97270405     0.10600
C251        C  0.02345015  0.64282446  0.89634689    -0.52900
C252        C  0.31686643  0.62825332  0.89057385     0.11100
H253        H  0.02322687  0.38463068  0.83777146     0.15700
H254        H  0.27781268  0.63910013  0.94414168     0.01400
H255        H  0.07674582  0.37317971  0.96196623     0.16000
H256        H  0.03505719  0.62693827  0.87332291     0.15800
C257        C  0.24800301  0.38286093  0.60011859    -0.15400
C258        C  0.27276327  0.37497904  0.57314728    -0.30500
H259        H  0.22592194  0.38521068  0.57685905     0.13700
H260        H  0.26761547  0.37125731  0.53095415     0.14200
C261        C  0.06705341  0.38244694  0.66265513    -0.15400
C262        C  0.09296048  0.36874959  0.66351957    -0.30500
H263        H  0.07368032  0.41074783  0.68422614     0.13700
H264        H  0.08482573  0.33924136  0.64375499     0.14200
C265        C  0.26823570  0.58242819  0.62279586    -0.15900
C266        C  0.26790164  0.54597650  0.61966893    -0.30500
H267        H  0.24872819  0.58565355  0.64987713     0.13700
H268        H  0.28872407  0.54476653  0.59277444     0.14200
C269        C  0.29178400  0.39588322  0.85574964    -0.15400
C270        C  0.28278462  0.35810738  0.87496420    -0.30500
H271        H  0.31947835  0.42379183  0.86844527     0.13700
H272        H  0.25461933  0.32966731  0.86551539     0.14200
C273        C  0.08332750  0.37230349  0.85723102    -0.15400
C274        C  0.11533155  0.36935279  0.86740595    -0.30500
H275        H  0.08524570  0.39377809  0.82664074     0.13700
H276        H  0.11382368  0.34677643  0.89595640     0.14200
C277        C  0.29598754  0.56027919  0.84667803    -0.15400
C278        C  0.28559750  0.58614456  0.86917841    -0.30500
H279        H  0.32656231  0.56788344  0.85027462     0.13700
H280        H  0.25493933  0.57851514  0.86749617     0.14200
Fe281      Fe  0.27865044  0.80211412  0.22757913     1.65800
Fe282      Fe  0.19302156  0.80005901  0.25480644     1.73200
Fe283      Fe  0.19290645  0.70785247  0.23957907     1.54400
O284        O  0.22716566  0.70291731  0.18008055    -0.80600
O285        O  0.16588899  0.76486467  0.32031498    -0.78900
O286        O  0.27274627  0.76882386  0.15959865    -0.83100
O287        O  0.28743669  0.76251479  0.27537012    -0.78000
O288        O  0.15439365  0.70576414  0.18285061    -0.79700
O289        O  0.23755437  0.84578081  0.30366327    -0.82500
C290        C  0.26581352  0.73132073  0.30505024     0.98300
C291        C  0.25273106  0.72978918  0.14869968     1.05700
O292        O  0.22146651  0.77021966  0.24057413    -1.11500
O293        O  0.21665112  0.83916396  0.19030719    -0.73900
O294        O  0.27621652  0.84637248  0.18046251    -0.77400
O295        O  0.22868266  0.70697653  0.29824751    -0.78100
C296        C  0.25066991  0.85656315  0.16913977     0.97200
O297        O  0.29048938  0.83938901  0.29309898    -0.76000
O298        O  0.14450938  0.75750930  0.20917245    -0.81200
C299        C  0.14693148  0.72508698  0.32563071     0.99800
C300        C  0.13470537  0.72430559  0.18247010     1.05700
O301        O  0.15300540  0.70088958  0.29717620    -0.76900
C302        C  0.27290300  0.85571708  0.31553853     1.04000
C303        C  0.02883672  0.68531322  0.13160617     0.87600
C304        C  0.00595464  0.98750140  0.13700855    -0.52700
C305        C  0.31959368  0.95930351  0.10258864     0.10500
C306        C  0.30559405  0.98404100  0.06877811     0.21400
C307        C  0.03475646  0.69815516  0.07446739    -0.53400
C308        C  0.34152378  0.01112549  0.03177109     0.10600
C309        C  0.99498482  0.69109168  0.14855273    -0.52900
C310        C  0.29412377  0.68175341  0.09036204     0.11100
H311        H  0.01054788  0.97165199  0.16977515     0.15700
H312        H  0.27670176  0.96354539  0.04843255     0.01400
H313        H  0.06337037  0.72390891  0.06188841     0.16000
H314        H  0.99743239  0.71129148  0.18119230     0.15800
C315        C  0.04730766  0.69389287  0.38886746     0.87600
C316        C  0.02041987  0.71056192  0.37335766    -0.52700
C317        C  0.31113898  0.68521881  0.39259944     0.10500
C318        C  0.30652046  0.98412394  0.43457369     0.21400
C319        C  0.04869348  0.69530899  0.44829245    -0.53400
C320        C  0.34119144  0.00390810  0.47606203     0.10600
C321        C  0.01913101  0.99237042  0.37392927    -0.52900
C322        C  0.31609003  0.95745315  0.39710144     0.11100
H323        H  0.02920753  0.73529535  0.34435350     0.15700
H324        H  0.27612554  0.96625039  0.45112241     0.01400
H325        H  0.07718264  0.71240032  0.46817677     0.16000
H326        H  0.02836344  0.97975209  0.34222729     0.15800
C327        C  0.25197104  0.71712785  0.09342624    -0.15400
C328        C  0.26597450  0.69439026  0.07080164    -0.30500
H329        H  0.23430855  0.72482282  0.06797747     0.13700
H330        H  0.25667485  0.68526536  0.03020567     0.14200
C331        C  0.06690819  0.70917678  0.16306727    -0.15400
C332        C  0.09816612  0.70528136  0.15069906    -0.30500
H333        H  0.06858605  0.72855663  0.19625455     0.13700
H334        H  0.09532068  0.68433899  0.11874006     0.14200
C335        C  0.29832047  0.91325715  0.11146366    -0.15900
C336        C  0.26220505  0.89277219  0.13350557    -0.30500
H337        H  0.31683945  0.89939023  0.11384179     0.13700
H338        H  0.24416394  0.90724185  0.13346550     0.14200
C339        C  0.28619129  0.72550923  0.34960188    -0.15400
C340        C  0.27780416  0.68802906  0.36924455    -0.30500
H341        H  0.31371770  0.75391626  0.36149336     0.13700
H342        H  0.25007064  0.65914175  0.35956020     0.14200
C343        C  0.08743257  0.71836232  0.36291024    -0.15400
C344        C  0.11378481  0.70557477  0.36281253    -0.30500
H345        H  0.09368662  0.74566635  0.33944043     0.13700
H346        H  0.10684046  0.67649116  0.38239974     0.14200
C347        C  0.29671924  0.88946980  0.35436633    -0.15400
C348        C  0.28565982  0.91518920  0.37558253    -0.30500
H349        H  0.32698400  0.89663711  0.36084083     0.13700
H350        H  0.25515290  0.90777894  0.37164228     0.14200
Fe351      Fe  0.27689981  0.79132029  0.74953784     1.65800
Fe352      Fe  0.19602989  0.80275238  0.75674377     1.73200
Fe353      Fe  0.18413476  0.70506046  0.73680843     1.54400
O354        O  0.22013470  0.69881445  0.68328706    -0.80600
O355        O  0.15927748  0.76520491  0.81635581    -0.78900
O356        O  0.27830300  0.75919931  0.68395208    -0.83100
O357        O  0.27334312  0.74539076  0.79876496    -0.78000
O358        O  0.15375724  0.71394665  0.67602600    -0.79700
O359        O  0.23747556  0.84244310  0.81284899    -0.82500
C360        C  0.24668378  0.70941124  0.81559100     0.98300
C361        C  0.25528637  0.72198967  0.66674886     1.05700
O362        O  0.21904014  0.76642999  0.74754042    -1.11500
O363        O  0.23090282  0.84341499  0.69674786    -0.73900
O364        O  0.28630692  0.84030583  0.70123483    -0.77400
O365        O  0.21083191  0.69056557  0.79856136    -0.78100
C366        C  0.26662133  0.85616228  0.68330589     0.97200
O367        O  0.28480151  0.82664222  0.81566098    -0.76000
O368        O  0.14906184  0.76836490  0.70435143    -0.81200
C369        C  0.13550608  0.72544439  0.81364954     0.99800
C370        C  0.13670282  0.73539195  0.67631361     1.05700
O371        O  0.14167501  0.70109417  0.78600762    -0.76900
C372        C  0.26926385  0.84692767  0.83237603     1.04000
C373        C  0.03344946  0.70745341  0.61895440     0.87600
C374        C  0.00914542  0.98686969  0.63912932    -0.52700
C375        C  0.30330461  0.96060464  0.61192062     0.10500
C376        C  0.29733887  0.98409188  0.56604393     0.21400
C377        C  0.04118429  0.70434992  0.56112853    -0.53400
C378        C  0.33685563  0.00548799  0.53492184     0.10600
C379        C  0.00409611  0.72371839  0.61841930    -0.52900
C380        C  0.32802262  0.69661658  0.60299273     0.11100
H381        H  0.01989599  0.97497395  0.67010412     0.15700
H382        H  0.27052709  0.96337666  0.54180102     0.01400
H383        H  0.07127768  0.72204642  0.54668605     0.16000
H384        H  0.01088004  0.75355675  0.63581538     0.15800
C385        C  0.04778311  0.69051993  0.90594885     0.87600
C386        C  0.02372801  0.70757110  0.88067199    -0.52700
C387        C  0.32009407  0.69566499  0.89752159     0.10500
C388        C  0.30491975  0.98150589  0.93541076     0.21400
C389        C  0.04537090  0.69553972  0.96383679    -0.53400
C390        C  0.34165789  0.00791576  0.97266183     0.10600
C391        C  0.02239573  0.98756216  0.87315642    -0.52900
C392        C  0.31413804  0.95114512  0.90544000     0.11100
H393        H  0.03610537  0.73014616  0.84890807     0.15700
H394        H  0.27562274  0.96521702  0.95517941     0.01400
H395        H  0.07255244  0.71039754  0.98680987     0.16000
H396        H  0.03283384  0.97457801  0.84345032     0.15800
C397        C  0.27060714  0.70308982  0.62930703    -0.15400
C398        C  0.30985296  0.72107712  0.62081008    -0.30500
H399        H  0.25032246  0.67080932  0.61632470     0.13700
H400        H  0.33006639  0.75243171  0.63681626     0.14200
C401        C  0.07289037  0.73189168  0.64908282    -0.15400
C402        C  0.09971331  0.71916988  0.64482846    -0.30500
H403        H  0.07894811  0.75841526  0.67407648     0.13700
H404        H  0.09213908  0.69212484  0.61981994     0.14200
C405        C  0.27473627  0.91622556  0.62786345    -0.15900
C406        C  0.28882258  0.89298774  0.64851039    -0.30500
H407        H  0.24313750  0.90495523  0.62833991     0.13700
H408        H  0.32044865  0.90467022  0.64481686     0.14200
C409        C  0.25952477  0.68839113  0.85423554    -0.15400
C410        C  0.29383714  0.71167607  0.88156766    -0.30500
H411        H  0.24463047  0.65413594  0.85386924     0.13700
H412        H  0.30829355  0.74591092  0.88023135     0.14200
C413        C  0.08990906  0.71201976  0.88650212    -0.15400
C414        C  0.09634455  0.70603583  0.83702398    -0.30500
H415        H  0.11487389  0.73203665  0.91241092     0.13700
H416        H  0.07136861  0.68435865  0.81210420     0.14200
C417        C  0.29204271  0.87959892  0.87274418    -0.15400
C418        C  0.28261979  0.90804159  0.88832808    -0.30500
H419        H  0.32122368  0.88493258  0.88301183     0.13700
H420        H  0.25314395  0.90266549  0.88031443     0.14200
Fe421      Fe  0.61470384  0.15677987  0.24198877     1.65800
Fe422      Fe  0.52381252  0.14443388  0.26243478     1.73200
Fe423      Fe  0.53327798  0.05783727  0.24486421     1.54400
O424        O  0.57343817  0.05911911  0.19087208    -0.80600
O425        O  0.49337703  0.10353295  0.32270222    -0.78900
O426        O  0.61919483  0.12626941  0.17757299    -0.83100
O427        O  0.62457254  0.11999797  0.29420642    -0.78000
O428        O  0.49701582  0.05453272  0.18399037    -0.79700
O429        O  0.56186366  0.18874605  0.31875857    -0.82500
C430        C  0.60387411  0.08508231  0.31833856     0.98300
C431        C  0.60418245  0.08749178  0.16766692     1.05700
O432        O  0.55722670  0.11983048  0.24952961    -1.11500
O433        O  0.54985615  0.18904473  0.20376636    -0.73900
O434        O  0.60966812  0.19750312  0.19041043    -0.77400
O435        O  0.56787780  0.05817796  0.30652405    -0.78100
C436        C  0.58326387  0.20691178  0.18097151     0.97200
O437        O  0.61956139  0.19266260  0.30547113    -0.76000
O438        O  0.48185165  0.10293168  0.20811647    -0.81200
C439        C  0.47783982  0.06387892  0.32627995     0.99800
C440        C  0.47622932  0.07171305  0.17986665     1.05700
O441        O  0.48846302  0.04339002  0.29796454    -0.76900
C442        C  0.59829953  0.20324050  0.33012809     1.04000
C443        C  0.37309301  0.03151670  0.11852907     0.87600
C444        C  0.35380581  0.32110418  0.13635000    -0.52700
C445        C  0.64915594  0.30151502  0.10122796     0.10500
C446        C  0.64570865  0.33119420  0.06127683     0.21400
C447        C  0.37630552  0.03667947  0.05939443    -0.53400
C448        C  0.68342796  0.34823722  0.02639093     0.10600
C449        C  0.34099949  0.04071354  0.13346626    -0.52900
C450        C  0.64140924  0.02254496  0.10088630     0.11100
H451        H  0.36539140  0.30899683  0.16592183     0.15700
H452        H  0.61702706  0.31609118  0.03940998     0.01400
H453        H  0.40471654  0.05885004  0.04231228     0.16000
H454        H  0.34558701  0.06395057  0.16323016     0.15800
C455        C  0.37742077  0.02609397  0.39344420     0.87600
C456        C  0.35087124  0.04358632  0.37983985    -0.52700
C457        C  0.64447565  0.03003197  0.40044000     0.10500
C458        C  0.64788225  0.33845318  0.44073008     0.21400
C459        C  0.37809838  0.02482614  0.45292018    -0.53400
C460        C  0.68328992  0.34984046  0.47896467     0.10600
C461        C  0.35077577  0.30523782  0.38647647    -0.52900
C462        C  0.64905695  0.30818745  0.39984127     0.11100
H463        H  0.36012056  0.06890495  0.35163773     0.15700
H464        H  0.61850752  0.32580533  0.45962545     0.01400
H465        H  0.40626532  0.04063304  0.47375081     0.16000
H466        H  0.35598022  0.28521268  0.36064992     0.15800
C467        C  0.62646040  0.07576067  0.13196739    -0.15400
C468        C  0.61318297  0.03588158  0.11643197    -0.30500
H469        H  0.65724915  0.09991563  0.12431897     0.13700
H470        H  0.58211176  0.01153191  0.12128458     0.14200
C471        C  0.41166503  0.05840870  0.14801033    -0.15400
C472        C  0.44254192  0.05265639  0.14260926    -0.30500
H473        H  0.41313566  0.08066661  0.17718274     0.13700
H474        H  0.44048688  0.02936758  0.11463098     0.14200
C475        C  0.62120229  0.25584996  0.10910308    -0.15900
C476        C  0.59301786  0.24291713  0.14585215    -0.30500
H477        H  0.63260777  0.23543249  0.09959312     0.13700
H478        H  0.58195503  0.26335305  0.15684951     0.14200
C479        C  0.62420490  0.07654735  0.36097336    -0.15400
C480        C  0.61345154  0.03769653  0.37863208    -0.30500
H481        H  0.65278158  0.10339399  0.37306110     0.13700
H482        H  0.58442456  0.01057626  0.36883290     0.14200
C483        C  0.41774727  0.05251245  0.36825223    -0.15400
C484        C  0.44396626  0.03996626  0.36194886    -0.30500
H485        H  0.42427872  0.08201162  0.35008064     0.13700
H486        H  0.43717181  0.00928441  0.37620198     0.14200
C487        C  0.61945171  0.23491138  0.37195270    -0.15400
C488        C  0.61414075  0.26724629  0.38217945    -0.30500
H489        H  0.64694003  0.23756164  0.38583475     0.13700
H490        H  0.58740389  0.26646723  0.36909382     0.14200
Fe491      Fe  0.60800124  0.13810940  0.72570530     1.65800
Fe492      Fe  0.52334623  0.13735842  0.76010591     1.73200
Fe493      Fe  0.52173225  0.04373556  0.74290405     1.54400
O494        O  0.54967612  0.03832333  0.67654322    -0.80600
O495        O  0.49129196  0.09818772  0.82110268    -0.78900
O496        O  0.60261671  0.10145551  0.66087343    -0.83100
O497        O  0.61881331  0.10216486  0.77650163    -0.78000
O498        O  0.47766946  0.04103515  0.69444254    -0.79700
O499        O  0.56741811  0.17844206  0.81347422    -0.82500
C500        C  0.59907596  0.06811878  0.80206034     0.98300
C501        C  0.57908055  0.06315508  0.64830115     1.05700
O502        O  0.55080477  0.10642427  0.74267337    -1.11500
O503        O  0.55053936  0.18136393  0.70083639    -0.73900
O504        O  0.60349796  0.17909472  0.67496771    -0.77400
O505        O  0.56231507  0.04186285  0.79394891    -0.78100
C506        C  0.58110336  0.19444410  0.67243847     0.97200
O507        O  0.62195662  0.17943080  0.78736893    -0.76000
O508        O  0.47572713  0.09977130  0.70979799    -0.81200
C509        C  0.47724031  0.05943399  0.83114061     0.99800
C510        C  0.46185095  0.06349921  0.68862436     1.05700
O511        O  0.48764661  0.03680789  0.80728512    -0.76900
C512        C  0.60453887  0.19218001  0.81707472     1.04000
C513        C  0.35977765  0.03199862  0.62447443     0.87600
C514        C  0.33333714  0.32005855  0.64321779    -0.52700
C515        C  0.65184701  0.29668871  0.60774820     0.10500
C516        C  0.64414900  0.32533779  0.57133013     0.21400
C517        C  0.36899257  0.03039473  0.56669232    -0.53400
C518        C  0.68204019  0.34839425  0.53746179     0.10600
C519        C  0.32918093  0.04654839  0.62365096    -0.52900
C520        C  0.62355662  0.01590872  0.59391627     0.11100
H521        H  0.33853581  0.30623157  0.67771118     0.15700
H522        H  0.61588969  0.30823729  0.54857819     0.01400
H523        H  0.39928698  0.04929330  0.55314875     0.16000
H524        H  0.33444583  0.07545799  0.64216146     0.15800
C525        C  0.37336793  0.01945047  0.88745464     0.87600
C526        C  0.34448452  0.03237598  0.86816630    -0.52700
C527        C  0.64426959  0.01965633  0.88931442     0.10500
C528        C  0.64746614  0.32628784  0.92840905     0.21400
C529        C  0.37698723  0.02748231  0.94588492    -0.53400
C530        C  0.68414098  0.34798971  0.96696527     0.10600
C531        C  0.35701065  0.31380577  0.87691647    -0.52900
C532        C  0.65475928  0.29675268  0.89337639     0.11100
H533        H  0.35120750  0.05344431  0.83502101     0.15700
H534        H  0.61796963  0.30986088  0.94763921     0.01400
H535        H  0.40619963  0.04651562  0.96337605     0.16000
H536        H  0.36797682  0.30150350  0.84708650     0.15800
C537        C  0.57968314  0.04984354  0.59370706    -0.15400
C538        C  0.59504243  0.02769835  0.57286261    -0.30500
H539        H  0.56106938  0.05543871  0.56725753     0.13700
H540        H  0.58621551  0.01779106  0.53232739     0.14200
C541        C  0.39802590  0.05739278  0.65656485    -0.15400
C542        C  0.42512990  0.04507613  0.65624615    -0.30500
H543        H  0.40299998  0.08429899  0.67995066     0.13700
H544        H  0.41843694  0.01735997  0.63315792     0.14200
C545        C  0.62718582  0.25023770  0.61226588    -0.15900
C546        C  0.59304080  0.23203363  0.63916343    -0.30500
H547        H  0.64298175  0.23343978  0.60832553     0.13700
H548        H  0.57823417  0.24962755  0.64563997     0.14200
C549        C  0.62169787  0.06120200  0.84287069    -0.15400
C550        C  0.61192600  0.02411984  0.86523625    -0.30500
H551        H  0.65072769  0.08878969  0.85162546     0.13700
H552        H  0.58252656  0.99629546  0.85967939     0.14200
C553        C  0.41239742  0.04323319  0.85882736    -0.15400
C554        C  0.44347613  0.03821333  0.86722710    -0.30500
H555        H  0.41512861  0.06544221  0.82872839     0.13700
H556        H  0.44107581  0.01424591  0.89410989     0.14200
C557        C  0.63066436  0.22612269  0.85461891    -0.15400
C558        C  0.62225049  0.25401074  0.87552757    -0.30500
H559        H  0.66083859  0.23240776  0.85840711     0.13700
H560        H  0.59212770  0.24801235  0.87335160     0.14200
Fe561      Fe  0.61655103  0.46541948  0.24836759     1.65800
Fe562      Fe  0.53791721  0.48005263  0.25498907     1.73200
Fe563      Fe  0.52315884  0.38025709  0.25535872     1.54400
O564        O  0.55479430  0.36634843  0.20263986    -0.80600
O565        O  0.50575233  0.45176117  0.32169663    -0.78900
O566        O  0.61055081  0.42683239  0.18550096    -0.83100
O567        O  0.61534249  0.42318531  0.30309623    -0.78000
O568        O  0.49110271  0.38182341  0.19313128    -0.79700
O569        O  0.58306220  0.52463366  0.30365499    -0.82500
C570        C  0.58907035  0.39124789  0.32841929     0.98300
C571        C  0.58640828  0.38780585  0.17659263     1.05700
O572        O  0.55929377  0.44207760  0.25291616    -1.11500
O573        O  0.56912318  0.51361759  0.18886191    -0.73900
O574        O  0.62455483  0.51097079  0.19468381    -0.77400
O575        O  0.55227299  0.37299175  0.31789777    -0.78100
C576        C  0.60447379  0.52568501  0.17480499     0.97200
O577        O  0.62931682  0.50709534  0.30970700    -0.76000
O578        O  0.48888135  0.44016311  0.20728729    -0.81200
C579        C  0.48390927  0.41299973  0.33287438     0.99800
C580        C  0.47650950  0.40472887  0.18451497     1.05700
O581        O  0.48555113  0.38403210  0.30834661    -0.76900
C582        C  0.61533352  0.52991348  0.32277549     1.04000
C583        C  0.37454262  0.36777967  0.12191703     0.87600
C584        C  0.33315558  0.64436517  0.13676310    -0.52700
C585        C  0.64435608  0.63160083  0.10828443     0.10500
C586        C  0.64012944  0.65838043  0.06476026     0.21400
C587        C  0.37983671  0.36883166  0.06292612    -0.53400
C588        C  0.67905614  0.67615570  0.03204539     0.10600
C589        C  0.34365418  0.38015784  0.12961044    -0.52900
C590        C  0.65399002  0.37013635  0.09467927     0.11100
H591        H  0.34030669  0.63155896  0.17059577     0.15700
H592        H  0.61206149  0.64095984  0.04166198     0.01400
H593        H  0.40919856  0.38949227  0.04707964     0.16000
H594        H  0.34834458  0.40607599  0.15490028     0.15800
C595        C  0.38347635  0.35003118  0.40057195     0.87600
C596        C  0.36808810  0.37792050  0.38051722    -0.52700
C597        C  0.66164048  0.37955268  0.40969969     0.10500
C598        C  0.64567743  0.66055900  0.43330765     0.21400
C599        C  0.38240820  0.35214454  0.46008487    -0.53400
C600        C  0.68039294  0.68218409  0.47475649     0.10600
C601        C  0.35845646  0.65083298  0.37450235    -0.52900
C602        C  0.65708859  0.63480842  0.39740656     0.11100
H603        H  0.38403811  0.40292500  0.35203325     0.15700
H604        H  0.61534919  0.64146154  0.44970936     0.01400
H605        H  0.40857302  0.36073514  0.48377643     0.16000
H606        H  0.37167347  0.63973124  0.34632943     0.15800
C607        C  0.59681934  0.36527394  0.13772572    -0.15400
C608        C  0.62706475  0.38608345  0.10426690    -0.30500
H609        H  0.58439310  0.33164439  0.14356775     0.13700
H610        H  0.64011817  0.41999200  0.10015193     0.14200
C611        C  0.41290870  0.39488294  0.15203415    -0.15400
C612        C  0.44263025  0.38723808  0.14788988    -0.30500
H613        H  0.41531551  0.41861223  0.17951651     0.13700
H614        H  0.43892240  0.36228681  0.12148851     0.14200
C615        C  0.61383770  0.58738946  0.12240430    -0.15900
C616        C  0.62579128  0.56069170  0.13717060    -0.30500
H617        H  0.58342111  0.57950424  0.12855352     0.13700
H618        H  0.65632565  0.56961707  0.12896978     0.14200
C619        C  0.60221748  0.37317158  0.36972184    -0.15400
C620        C  0.63720004  0.39733720  0.39419815    -0.30500
H621        H  0.58624304  0.33901639  0.37383521     0.13700
H622        H  0.65287309  0.43136984  0.38849784     0.14200
C623        C  0.42279096  0.36104139  0.37695779    -0.15400
C624        C  0.45332089  0.40110808  0.37338992    -0.30500
H625        H  0.42395346  0.33641704  0.35516750     0.13700
H626        H  0.45204004  0.42613895  0.39393878     0.14200
C627        C  0.63981058  0.56593846  0.35854692    -0.15400
C628        C  0.62795114  0.59168734  0.37731580    -0.30500
H629        H  0.67027775  0.57392751  0.36548160     0.13700
H630        H  0.59705781  0.58295917  0.37330379     0.14200
Fe631      Fe  0.60504526  0.46809165  0.71928284     1.65800
Fe632      Fe  0.52374234  0.47025835  0.75788902     1.73200
Fe633      Fe  0.52094482  0.37563587  0.75153074     1.54400
O634        O  0.54324125  0.36319961  0.68569845    -0.80600
O635        O  0.49189057  0.43366979  0.81919286    -0.78900
O636        O  0.59715858  0.42378689  0.66353752    -0.83100
O637        O  0.61993978  0.43895326  0.77572342    -0.78000
O638        O  0.47317702  0.36954752  0.70737826    -0.79700
O639        O  0.56800900  0.50994769  0.81060735    -0.82500
C640        C  0.60268791  0.40575226  0.80338966     0.98300
C641        C  0.57397572  0.38416591  0.65818577     1.05700
O642        O  0.54958959  0.43771216  0.74232523    -1.11500
O643        O  0.55113924  0.51316428  0.69799121    -0.73900
O644        O  0.59609039  0.50184248  0.66155727    -0.77400
O645        O  0.56589882  0.37787818  0.79832190    -0.78100
C646        C  0.57727518  0.52125460  0.66366538     0.97200
O647        O  0.62181699  0.51585404  0.77339805    -0.76000
O648        O  0.47634476  0.43213577  0.70856845    -0.81200
C649        C  0.48146031  0.39759309  0.83695921     0.99800
C650        C  0.45954542  0.39331984  0.69532903     1.05700
O651        O  0.49370898  0.37474774  0.81927626    -0.76900
C652        C  0.60541625  0.52611136  0.80823452     1.04000
C653        C  0.36009027  0.36650348  0.62836313     0.87600
C654        C  0.34072418  0.63121270  0.62832108    -0.52700
C655        C  0.64574684  0.62469988  0.60175253     0.10500
C656        C  0.63705382  0.65098916  0.56322531     0.21400
C657        C  0.37120362  0.36623355  0.57111562    -0.53400
C658        C  0.67633058  0.67885360  0.53362959     0.10600
C659        C  0.33188445  0.38409972  0.62642175    -0.52900
C660        C  0.64766814  0.36081130  0.60742953     0.11100
H661        H  0.34376720  0.61094840  0.65642412     0.15700
H662        H  0.61108425  0.63103255  0.53734348     0.01400
H663        H  0.40198752  0.38384126  0.55878537     0.16000
H664        H  0.33816440  0.41295746  0.64614218     0.15800
C665        C  0.37988438  0.36048922  0.89147040     0.87600
C666        C  0.35238338  0.37621444  0.87674033    -0.52700
C667        C  0.65294665  0.36129078  0.88977172     0.10500
C668        C  0.64747352  0.65320511  0.93212664     0.21400
C669        C  0.38227978  0.36203474  0.95014150    -0.53400
C670        C  0.68235574  0.67365367  0.97325354     0.10600
C671        C  0.35498147  0.64926408  0.87149932    -0.52900
C672        C  0.65587467  0.62456318  0.89663750     0.11100
H673        H  0.36039282  0.40014279  0.84680239     0.15700
H674        H  0.61718256  0.63664912  0.94913557     0.01400
H675        H  0.41126832  0.37903962  0.96895622     0.16000
H676        H  0.36548765  0.63664333  0.84145724     0.15800
C677        C  0.58605262  0.36024611  0.62424074    -0.15400
C678        C  0.62278699  0.37990183  0.60436444    -0.30500
H679        H  0.56999519  0.32607226  0.62843770     0.13700
H680        H  0.63928275  0.41421557  0.60233206     0.14200
C681        C  0.39724814  0.38910168  0.66254917    -0.15400
C682        C  0.42228690  0.37415541  0.66435110    -0.30500
H683        H  0.40377110  0.41715557  0.68461283     0.13700
H684        H  0.41416508  0.34518870  0.64318465     0.14200
C685        C  0.62392835  0.57818104  0.60558322    -0.15900
C686        C  0.58836425  0.55773717  0.62892312    -0.30500
H687        H  0.64199151  0.56374713  0.60526953     0.13700
H688        H  0.57188961  0.57381090  0.63315428     0.14200
C689        C  0.62843485  0.40123411  0.84196688    -0.15400
C690        C  0.61987853  0.36567439  0.86764276    -0.30500
H691        H  0.65816418  0.42886216  0.84592499     0.13700
H692        H  0.58991400  0.33820612  0.86667413     0.14200
C693        C  0.41931668  0.38592479  0.86607935    -0.15400
C694        C  0.44889140  0.37859970  0.87389982    -0.30500
H695        H  0.42308146  0.41001851  0.83826103     0.13700
H696        H  0.44488759  0.35304698  0.89915963     0.14200
C697        C  0.63255883  0.55865742  0.84604912    -0.15400
C698        C  0.62371748  0.58343886  0.87433867    -0.30500
H699        H  0.66278018  0.56498373  0.84625102     0.13700
H700        H  0.59325734  0.57643673  0.87568126     0.14200
Fe701      Fe  0.60571285  0.80087136  0.22561594     1.65800
Fe702      Fe  0.52305008  0.80539074  0.24611898     1.73200
Fe703      Fe  0.52010521  0.71087452  0.25470550     1.54400
O704        O  0.54005360  0.69630391  0.18757621    -0.80600
O705        O  0.48710882  0.77021482  0.30726400    -0.78900
O706        O  0.60126761  0.75193048  0.18058229    -0.83100
O707        O  0.61759940  0.77858216  0.29242300    -0.78000
O708        O  0.47080091  0.70253085  0.21151102    -0.79700
O709        O  0.56422445  0.84762666  0.30072073    -0.82500
C710        C  0.60049404  0.74270380  0.31424562     0.98300
C711        C  0.57434910  0.71470858  0.16739761     1.05700
O712        O  0.54926792  0.77208325  0.24177790    -1.11500
O713        O  0.55523574  0.84484818  0.18327294    -0.73900
O714        O  0.59737283  0.82498882  0.15794523    -0.77400
O715        O  0.56584903  0.71280261  0.30061730    -0.78100
C716        C  0.58049830  0.84591645  0.15110581     0.97200
O717        O  0.61976828  0.85450928  0.26871078    -0.76000
O718        O  0.47802997  0.76563198  0.19458039    -0.81200
C719        C  0.48042649  0.73786867  0.33314674     0.99800
C720        C  0.45895192  0.72552722  0.19043196     1.05700
O721        O  0.49684133  0.71702332  0.32327749    -0.76900
C722        C  0.60187903  0.86583839  0.29991901     1.04000
C723        C  0.35699282  0.69119169  0.12288413     0.87600
C724        C  0.35485898  0.98432698  0.12795686    -0.52700
C725        C  0.62834921  0.95097345  0.09507231     0.10500
C726        C  0.63097287  0.98676239  0.06098637     0.21400
C727        C  0.36757515  0.69254573  0.06510920    -0.53400
C728        C  0.66943911  0.00293316  0.02814101     0.10600
C729        C  0.32622420  0.70548420  0.12314836    -0.52900
C730        C  0.64507356  0.69742420  0.09467496     0.11100
H731        H  0.36833423  0.97170948  0.15377174     0.15700
H732        H  0.60357750  0.97727130  0.03770025     0.01400
H733        H  0.39811962  0.71253198  0.05287503     0.16000
H734        H  0.33109578  0.73357095  0.14357111     0.15800
C735        C  0.37803208  0.69773168  0.38935956     0.87600
C736        C  0.34836460  0.70965779  0.37228679    -0.52700
C737        C  0.65049857  0.69663329  0.39732638     0.10500
C738        C  0.63632567  0.99008644  0.43101088     0.21400
C739        C  0.37792454  0.69945382  0.44838068    -0.53400
C740        C  0.67046665  0.00709710  0.47360077     0.10600
C741        C  0.35341661  0.97997597  0.37591262    -0.52900
C742        C  0.64608070  0.96535651  0.39010172     0.11100
H743        H  0.35574288  0.73341237  0.34232909     0.15700
H744        H  0.60567645  0.97168961  0.44672103     0.01400
H745        H  0.40523430  0.71936449  0.47037943     0.16000
H746        H  0.36406646  0.96752099  0.34581277     0.15800
C747        C  0.58483390  0.69079626  0.13086052    -0.15400
C748        C  0.61601504  0.71120251  0.09858441    -0.30500
H749        H  0.57281381  0.65751992  0.13905290     0.13700
H750        H  0.62804947  0.74473250  0.09217253     0.14200
C751        C  0.39448441  0.71612038  0.15661760    -0.15400
C752        C  0.42160159  0.70387126  0.15907828    -0.30500
H753        H  0.39942028  0.74371882  0.17839891     0.13700
H754        H  0.41498186  0.67494839  0.13903888     0.14200
C755        C  0.59182339  0.90985485  0.10527122    -0.15900
C756        C  0.59499768  0.87548646  0.10658552    -0.30500
H757        H  0.56859240  0.91061632  0.12719477     0.13700
H758        H  0.61871925  0.87615862  0.08391690     0.14200
C759        C  0.62422403  0.73708867  0.35518998    -0.15400
C760        C  0.61699201  0.69987997  0.37453851    -0.30500
H761        H  0.65236848  0.76547386  0.36518178     0.13700
H762        H  0.58861502  0.67107624  0.36721027     0.14200
C763        C  0.41790311  0.72597633  0.36506697    -0.15400
C764        C  0.44858473  0.72028828  0.37200566    -0.30500
H765        H  0.42047460  0.74933485  0.33690912     0.13700
H766        H  0.44582368  0.69589792  0.39848151     0.14200
C767        C  0.62757907  0.90189705  0.33526601    -0.15400
C768        C  0.61602384  0.92366529  0.36562562    -0.30500
H769        H  0.65881950  0.91187545  0.33401106     0.13700
H770        H  0.58463034  0.91275471  0.36930261     0.14200
Fe771      Fe  0.61172721  0.80259661  0.72962077     1.65800
Fe772      Fe  0.52616879  0.79595498  0.76849703     1.73200
Fe773      Fe  0.52969007  0.70655934  0.75090803     1.54400
O774        O  0.56348759  0.70258208  0.68943523    -0.80600
O775        O  0.50491545  0.76213337  0.83661577    -0.78900
O776        O  0.60304744  0.76837519  0.66194833    -0.83100
O777        O  0.62585320  0.76495187  0.77321466    -0.78000
O778        O  0.48667208  0.70025711  0.69774979    -0.79700
O779        O  0.57248837  0.84378452  0.81169505    -0.82500
C780        C  0.60777808  0.73523633  0.80621243     0.98300
C781        C  0.58630644  0.72884825  0.65514868     1.05700
O782        O  0.55573385  0.76857024  0.74915366    -1.11500
O783        O  0.54358415  0.83361748  0.70209496    -0.73900
O784        O  0.60424641  0.84563643  0.68527582    -0.77400
O785        O  0.57018807  0.71073235  0.80644686    -0.78100
C786        C  0.57647904  0.85339402  0.67798618     0.97200
O787        O  0.62609429  0.83973661  0.79543975    -0.76000
O788        O  0.47586990  0.75002564  0.72990321    -0.81200
C789        C  0.48393803  0.72223212  0.83944364     0.99800
C790        C  0.46500037  0.71637999  0.70384092     1.05700
O791        O  0.49010625  0.69833078  0.81040792    -0.76900
C792        C  0.60852297  0.85493301  0.82029763     1.04000
C793        C  0.37571983  0.67325743  0.61067228     0.87600
C794        C  0.33605675  0.98605114  0.64198292    -0.52700
C795        C  0.63588580  0.95742862  0.60732953     0.10500
C796        C  0.62700638  0.98105304  0.56420905     0.21400
C797        C  0.37462189  0.66996357  0.55165927    -0.53400
C798        C  0.66606704  0.00617042  0.53275628     0.10600
C799        C  0.36405129  0.70610761  0.62312008    -0.52900
C800        C  0.63235240  0.68276451  0.59751515     0.11100
H801        H  0.34385085  0.97504949  0.67701175     0.15700
H802        H  0.60068497  0.95978181  0.53945973     0.01400
H803        H  0.40022700  0.67442316  0.53000515     0.16000
H804        H  0.38171567  0.73326775  0.64858263     0.15800
C805        C  0.38129360  0.69410977  0.89257231     0.87600
C806        C  0.35826733  0.71607123  0.87979969    -0.52700
C807        C  0.65517316  0.68964401  0.89496384     0.10500
C808        C  0.63853484  0.98486865  0.92846750     0.21400
C809        C  0.37951076  0.68965753  0.95183232    -0.53400
C810        C  0.67297116  0.00750269  0.96962849     0.10600
C811        C  0.35057058  0.97141549  0.88129148    -0.52900
C812        C  0.64992379  0.95751433  0.89603162     0.11100
H813        H  0.37055161  0.74454010  0.85621451     0.15700
H814        H  0.60820194  0.96664211  0.94523189     0.01400
H815        H  0.40670879  0.70167458  0.97446066     0.16000
H816        H  0.36050305  0.95569973  0.85491725     0.15800
C817        C  0.58536688  0.71364194  0.60129223    -0.15400
C818        C  0.60183472  0.69290763  0.57957557    -0.30500
H819        H  0.56597066  0.71842521  0.57532145     0.13700
H820        H  0.59193318  0.68264994  0.53939036     0.14200
C821        C  0.41563845  0.68418452  0.63304851    -0.15400
C822        C  0.42427803  0.69499304  0.68337087    -0.30500
H823        H  0.43896223  0.68759782  0.60703502     0.13700
H824        H  0.40171195  0.69422360  0.70864359     0.14200
C825        C  0.61649309  0.91103853  0.61469646    -0.15900
C826        C  0.58370849  0.88960562  0.64420974    -0.30500
H827        H  0.63565231  0.89814920  0.61005697     0.13700
H828        H  0.56525812  0.90314359  0.65077961     0.14200
C829        C  0.63319066  0.73073566  0.84489200    -0.15400
C830        C  0.62333421  0.69535511  0.87174069    -0.30500
H831        H  0.66325534  0.75782253  0.84789519     0.13700
H832        H  0.59293057  0.66866594  0.87103935     0.14200
C833        C  0.42316401  0.71746453  0.87061989    -0.15400
C834        C  0.44808376  0.70260205  0.87266582    -0.30500
H835        H  0.43243046  0.74647622  0.84912190     0.13700
H836        H  0.43829173  0.67212142  0.89049673     0.14200
C837        C  0.63264922  0.88896089  0.85798957    -0.15400
C838        C  0.62062065  0.91400603  0.87825691    -0.30500
H839        H  0.66333558  0.89722373  0.86327288     0.13700
H840        H  0.58964993  0.90516762  0.87508021     0.14200
Fe841      Fe  0.93941724  0.12546818  0.24914405     1.65800
Fe842      Fe  0.86038489  0.13907448  0.25481527     1.73200
Fe843      Fe  0.84609544  0.03918605  0.24772032     1.54400
O844        O  0.87164066  0.03281567  0.18045869    -0.80600
O845        O  0.81665582  0.09890449  0.30688826    -0.78900
O846        O  0.93501914  0.08531695  0.18919487    -0.83100
O847        O  0.93792141  0.08585291  0.30659438    -0.78000
O848        O  0.80365832  0.04252933  0.20219717    -0.79700
O849        O  0.89547731  0.17157448  0.31921890    -0.82500
C850        C  0.91453589  0.04735574  0.31752086     0.98300
C851        C  0.90772393  0.05217998  0.16608424     1.05700
O852        O  0.88198882  0.10135459  0.24997245    -1.11500
O853        O  0.90120767  0.18473778  0.20281119    -0.73900
O854        O  0.94874547  0.16960203  0.19287472    -0.77400
O855        O  0.88121199  0.02511624  0.29463011    -0.78100
C856        C  0.93333814  0.19151914  0.18195165     0.97200
O857        O  0.94941981  0.16685582  0.30952690    -0.76000
O858        O  0.82248866  0.11025456  0.19204372    -0.81200
C859        C  0.80569035  0.06347150  0.32839303     0.99800
C860        C  0.79909407  0.07131820  0.18235639     1.05700
O861        O  0.81853727  0.03986103  0.31491132    -0.76900
C862        C  0.92982547  0.18006872  0.33373451     1.04000
C863        C  0.69484781  0.00873014  0.11722073     0.87600
C864        C  0.68365290  0.32045059  0.12938682    -0.52700
C865        C  0.97818569  0.29839990  0.11110743     0.10500
C866        C  0.97507110  0.32352352  0.06414354     0.21400
C867        C  0.70225667  0.01335834  0.05868416    -0.53400
C868        C  0.01202782  0.33550166  0.02955459     0.10600
C869        C  0.67524832  0.03432663  0.12969441    -0.52900
C870        C  0.98090539  0.03925760  0.09456323     0.11100
H871        H  0.69037365  0.30372287  0.15882451     0.15700
H872        H  0.94603714  0.30674637  0.04307598     0.01400
H873        H  0.73151157  0.02323551  0.04363373     0.16000
H874        H  0.68544225  0.05723805  0.16157948     0.15800
C875        C  0.70787185  0.03387609  0.39270583     0.87600
C876        C  0.68240756  0.05287017  0.38191486    -0.52700
C877        C  0.98564416  0.03829786  0.40695116     0.10500
C878        C  0.97378480  0.31400345  0.44159891     0.21400
C879        C  0.70763556  0.02883739  0.45158155    -0.53400
C880        C  0.00890275  0.33317560  0.48213536     0.10600
C881        C  0.68529252  0.32448878  0.37598153    -0.52900
C882        C  0.97752824  0.27989160  0.41189197     0.11100
H883        H  0.69266218  0.07979245  0.35604674     0.15700
H884        H  0.94382772  0.30191183  0.45835006     0.01400
H885        H  0.73548924  0.04251365  0.47305154     0.16000
H886        H  0.69093909  0.30814892  0.34492257     0.15800
C887        C  0.91945463  0.03335465  0.12398274    -0.15400
C888        C  0.95483797  0.05659092  0.10077629    -0.30500
H889        H  0.90387992  0.99907167  0.12170135     0.13700
H890        H  0.97002234  0.09081221  0.10445956     0.14200
C891        C  0.73160521  0.02051124  0.14954843    -0.15400
C892        C  0.76436852  0.05934535  0.14808280    -0.30500
H893        H  0.73121157  0.99670107  0.17494870     0.13700
H894        H  0.76436987  0.08358735  0.12401160     0.14200
C895        C  0.94644122  0.25574948  0.12971135    -0.15900
C896        C  0.95678871  0.22811034  0.14671713    -0.30500
H897        H  0.91629357  0.24914524  0.13432675     0.13700
H898        H  0.98679216  0.23522066  0.13853929     0.14200
C899        C  0.92791371  0.02744689  0.35632322    -0.15400
C900        C  0.95764758  0.05135928  0.39027339    -0.30500
H901        H  0.91741293  0.99404571  0.35184839     0.13700
H902        H  0.96852739  0.08496649  0.39301043     0.14200
C903        C  0.74831611  0.05993951  0.36868668    -0.15400
C904        C  0.77408798  0.04666500  0.36762620    -0.30500
H905        H  0.75468018  0.08777082  0.34635096     0.13700
H906        H  0.76731126  0.01810683  0.38852442     0.14200
C907        C  0.94989173  0.20800768  0.37896831    -0.15400
C908        C  0.94340375  0.23885968  0.39350539    -0.30500
H909        H  0.97681023  0.20936640  0.39273218     0.13700
H910        H  0.91640418  0.23794614  0.38138158     0.14200
Fe911      Fe  0.93825206  0.11507866  0.73648744     1.65800
Fe912      Fe  0.85989042  0.13085347  0.75186117     1.73200
Fe913      Fe  0.84413418  0.03070706  0.74034064     1.54400
O914        O  0.86737339  0.02660238  0.66987490    -0.80600
O915        O  0.82111692  0.09303057  0.80915350    -0.78900
O916        O  0.93243182  0.07384727  0.67600123    -0.83100
O917        O  0.93789934  0.07604628  0.79419062    -0.78000
O918        O  0.80067601  0.03436932  0.69863868    -0.79700
O919        O  0.90124986  0.16657576  0.81032171    -0.82500
C920        C  0.91413126  0.03752265  0.80490023     0.98300
C921        C  0.90249952  0.04416500  0.65198574     1.05700
O922        O  0.88065531  0.09243510  0.74251005    -1.11500
O923        O  0.89704020  0.17310517  0.69479951    -0.73900
O924        O  0.94472106  0.15827590  0.68022887    -0.77400
O925        O  0.88043990  0.01582238  0.78281325    -0.78100
C926        C  0.92856290  0.17993718  0.67177279     0.97200
O927        O  0.95309337  0.15933691  0.79478526    -0.76000
O928        O  0.81387436  0.10056590  0.69652953    -0.81200
C929        C  0.80818933  0.05620359  0.82746367     0.99800
C930        C  0.79217502  0.06166675  0.68450906     1.05700
O931        O  0.81809757  0.03085897  0.80998286    -0.76900
C932        C  0.93667971  0.17578627  0.81972578     1.04000
C933        C  0.68884539  0.03003250  0.62344758     0.87600
C934        C  0.68644425  0.31782277  0.63591340    -0.52700
C935        C  0.96967173  0.28966155  0.61515336     0.10500
C936        C  0.96571961  0.31603013  0.57137704     0.21400
C937        C  0.69784032  0.03169477  0.56492316    -0.53400
C938        C  0.00516999  0.33580073  0.54053566     0.10600
C939        C  0.65601327  0.04138730  0.62566930    -0.52900
C940        C  0.96226244  0.01680869  0.59683212     0.11100
H941        H  0.69624532  0.30208530  0.66268948     0.15700
H942        H  0.93849206  0.29750831  0.54698259     0.01400
H943        H  0.72763646  0.05344318  0.55125508     0.16000
H944        H  0.66010738  0.06942556  0.64535298     0.15800
C945        C  0.70944444  0.02715251  0.88783205     0.87600
C946        C  0.68176162  0.04155342  0.86898150    -0.52700
C947        C  0.98277709  0.02923703  0.89819774     0.10500
C948        C  0.97583693  0.30769081  0.93269292     0.21400
C949        C  0.70974324  0.03047802  0.94689445    -0.53400
C950        C  0.01249332  0.33175223  0.97065511     0.10600
C951        C  0.69131678  0.31724595  0.86959408    -0.52900
C952        C  0.98466273  0.27859995  0.89890191     0.11100
H953        H  0.69046808  0.06467071  0.83787457     0.15700
H954        H  0.94646809  0.29075061  0.95224335     0.01400
H955        H  0.73747303  0.04975715  0.96810480     0.16000
H956        H  0.70050545  0.30253387  0.84059909     0.15800
C957        C  0.90634804  0.03419980  0.59716269    -0.15400
C958        C  0.93277492  0.02645549  0.57427773    -0.30500
H959        H  0.88390803  0.03324116  0.57095388     0.13700
H960        H  0.92806059  0.02033816  0.53226821     0.14200
C961        C  0.72748188  0.05604883  0.65523158    -0.15400
C962        C  0.75589313  0.04563289  0.65143601    -0.30500
H963        H  0.73138597  0.08105031  0.68155772     0.13700
H964        H  0.74959479  0.01908865  0.62619392     0.14200
C965        C  0.93928586  0.24518556  0.62765200    -0.15900
C966        C  0.95069376  0.21729109  0.63766423    -0.30500
H967        H  0.90913963  0.23744861  0.63574969     0.13700
H968        H  0.98078875  0.22583035  0.62733769     0.14200
C969        C  0.92719670  0.01681912  0.84266444    -0.15400
C970        C  0.95249201  0.03903328  0.88192913    -0.30500
H971        H  0.92059005  0.98507270  0.83369839     0.13700
H972        H  0.95957049  0.07118423  0.88916552     0.14200
C973        C  0.74961308  0.05182861  0.86301171    -0.15400
C974        C  0.77672989  0.04028638  0.86676459    -0.30500
H975        H  0.75480076  0.07706755  0.83626208     0.13700
H976        H  0.77089281  0.01340203  0.89072032     0.14200
C977        C  0.96207936  0.20895479  0.85839468    -0.15400
C978        C  0.95288530  0.23605468  0.87985269    -0.30500
H979        H  0.99211208  0.21505750  0.86340711     0.13700
H980        H  0.92270379  0.22980654  0.87689819     0.14200
Fe981      Fe  0.94478361  0.46471240  0.22974683     1.65800
Fe982      Fe  0.86073154  0.46284332  0.26505854     1.73200
Fe983      Fe  0.86226679  0.37114660  0.25896914     1.54400
O984        O  0.89360572  0.36228563  0.20170853    -0.80600
O985        O  0.83342116  0.42892340  0.33072137    -0.78900
O986        O  0.93547056  0.42458249  0.16697279    -0.83100
O987        O  0.95897681  0.43047205  0.28021642    -0.78000
O988        O  0.82105514  0.36400268  0.20261802    -0.79700
O989        O  0.90510618  0.50806499  0.31377599    -0.82500
C990        C  0.94137979  0.40042518  0.31294890     0.98300
C991        C  0.91782336  0.38454155  0.16655613     1.05700
O992        O  0.88927990  0.43315440  0.25156004    -1.11500
O993        O  0.88314774  0.50249754  0.20155972    -0.73900
O994        O  0.93768159  0.50320979  0.17742435    -0.77400
O995        O  0.90355017  0.37680751  0.31512381    -0.78100
C996        C  0.91322647  0.51572575  0.17254610     0.97200
O997        O  0.95986266  0.50818299  0.29004126    -0.76000
O998        O  0.81445575  0.42007593  0.21700615    -0.81200
C999        C  0.81503653  0.38968775  0.33919932     0.99800
C1000       C  0.80455238  0.38535956  0.19363628     1.05700
O1001       O  0.82326508  0.36502835  0.31630947    -0.76900
C1002       C  0.94215051  0.52183356  0.31809124     1.04000
C1003       C  0.71237749  0.36639046  0.11508768     0.87600
C1004       C  0.67857462  0.65369819  0.13749270    -0.52700
C1005       C  0.97781176  0.61517779  0.10237729     0.10500
C1006       C  0.96476746  0.64276321  0.07332379     0.21400
C1007       C  0.71808769  0.36589887  0.05603999    -0.53400
C1008       C  0.00231374  0.67486778  0.04216841     0.10600
C1009       C  0.68900467  0.38842637  0.12175295    -0.52900
C1010       C  0.98502361  0.36640810  0.08837354     0.11100
H1011       H  0.68561454  0.64019754  0.17067217     0.15700
H1012       H  0.93735073  0.62446419  0.04913155     0.01400
H1013       H  0.74771924  0.37899284  0.04054111     0.16000
H1014       H  0.69847209  0.41538768  0.14777090     0.15800
C1015       C  0.71659147  0.36876953  0.39500304     0.87600
C1016       C  0.69776412  0.39549102  0.38695186    -0.52700
C1017       C  0.98506936  0.34879058  0.40006783     0.10500
C1018       C  0.97700953  0.65324396  0.43178535     0.21400
C1019       C  0.71872606  0.36484661  0.45365011    -0.53400
C1020       C  0.01207489  0.67517918  0.47226730     0.10600
C1021       C  0.69429375  0.65852012  0.37647777    -0.52900
C1022       C  0.98647581  0.62523975  0.39656613     0.11100
H1023       H  0.71063319  0.42327746  0.36202760     0.15700
H1024       H  0.94684221  0.63592188  0.44908298     0.01400
H1025       H  0.74667585  0.37329548  0.47254054     0.16000
H1026       H  0.70616523  0.64636536  0.34766493     0.15800
C1027       C  0.92758285  0.36192738  0.12736508    -0.15400
C1028       C  0.95788174  0.38237122  0.09426924    -0.30500
H1029       H  0.91611152  0.32859203  0.13473589     0.13700
H1030       H  0.97080922  0.41617078  0.08909883     0.14200
C1031       C  0.75003547  0.38671283  0.14768952    -0.15400
C1032       C  0.77183552  0.36861240  0.15476243    -0.30500
H1033       H  0.75775563  0.41532414  0.16940495     0.13700
H1034       H  0.76383505  0.33953896  0.13399986     0.14200
C1035       C  0.95507762  0.56877745  0.10693653    -0.15900
C1036       C  0.92178090  0.55022437  0.13553677    -0.30500
H1037       H  0.97224115  0.55342261  0.10377595     0.13700
H1038       H  0.90559232  0.56649025  0.14103020     0.14200
C1039       C  0.96770876  0.39344544  0.34764625    -0.15400
C1040       C  0.95586563  0.35907981  0.37763585    -0.30500
H1041       H  0.99922433  0.41680932  0.34479531     0.13700
H1042       H  0.92434269  0.33631783  0.38241058     0.14200
C1043       C  0.75627542  0.38789174  0.36905065    -0.15400
C1044       C  0.77964290  0.37142060  0.37219097    -0.30500
H1045       H  0.76603781  0.41632047  0.34600357     0.13700
H1046       H  0.76961839  0.34175555  0.39240278     0.14200
C1047       C  0.96728187  0.55668527  0.35496256    -0.15400
C1048       C  0.95614808  0.58191995  0.37771378    -0.30500
H1049       H  0.99806505  0.56491184  0.35825875     0.13700
H1050       H  0.92517846  0.57325912  0.37658924     0.14200
Fe1051     Fe  0.95686921  0.47283105  0.74456460     1.65800
Fe1052     Fe  0.87121330  0.47454354  0.75351204     1.73200
Fe1053     Fe  0.86888847  0.37968450  0.74751873     1.54400
O1054       O  0.90317823  0.37618194  0.68736884    -0.80600
O1055       O  0.83442978  0.43690698  0.81293018    -0.78900
O1056       O  0.95450093  0.44170920  0.67610202    -0.83100
O1057       O  0.96236965  0.43181553  0.79230097    -0.78000
O1058       O  0.82988376  0.37678142  0.69062640    -0.79700
O1059       O  0.91110835  0.51649294  0.81009824    -0.82500
C1060       C  0.93973711  0.39830905  0.81711166     0.98300
C1061       C  0.93176142  0.40408235  0.66013577     1.05700
O1062       O  0.89863899  0.44232350  0.74857551    -1.11500
O1063       O  0.90348099  0.51650614  0.69270900    -0.73900
O1064       O  0.96142771  0.51973394  0.69777878    -0.77400
O1065       O  0.90298613  0.37510931  0.80673477    -0.78100
C1066       C  0.93962435  0.53250369  0.67941332     0.97200
O1067       O  0.96286855  0.50696110  0.81134271    -0.76000
O1068       O  0.82732098  0.43556699  0.70029255    -0.81200
C1069       C  0.81891040  0.39810896  0.82467251     0.99800
C1070       C  0.81435164  0.39887271  0.68109643     1.05700
O1071       O  0.82980961  0.37430239  0.80489513    -0.76900
C1072       C  0.94405782  0.52358134  0.82946496     1.04000
C1073       C  0.71041373  0.36525150  0.62595153     0.87600
C1074       C  0.67707195  0.64817506  0.63430331    -0.52700
C1075       C  0.97493882  0.63695348  0.60910002     0.10500
C1076       C  0.96937399  0.66021045  0.56272677     0.21400
C1077       C  0.71634688  0.36965055  0.56699987    -0.53400
C1078       C  0.00839188  0.67939101  0.53065938     0.10600
C1079       C  0.68200087  0.38085967  0.63655863    -0.52900
C1080       C  0.96765185  0.35388444  0.60009141     0.11100
H1081       H  0.68672540  0.63398167  0.66368009     0.15700
H1082       H  0.94195401  0.63983648  0.53936290     0.01400
H1083       H  0.74585301  0.38963501  0.55121548     0.16000
H1084       H  0.68960116  0.40763692  0.66206227     0.15800
C1085       C  0.71629410  0.36464819  0.88162092     0.87600
C1086       C  0.68948524  0.38137638  0.86648962    -0.52700
C1087       C  0.98006992  0.34146575  0.89318390     0.10500
C1088       C  0.97483658  0.65453439  0.93966320     0.21400
C1089       C  0.71965214  0.36823735  0.94078844    -0.53400
C1090       C  0.00760930  0.67677195  0.98354199     0.10600
C1091       C  0.69347025  0.64545354  0.87584349    -0.52900
C1092       C  0.98463997  0.62365631  0.91211959     0.11100
H1093       H  0.69766786  0.40426299  0.83523096     0.15700
H1094       H  0.94374663  0.63904191  0.95386634     0.01400
H1095       H  0.74867827  0.38621908  0.95917273     0.16000
H1096       H  0.70398521  0.63225977  0.84663350     0.15800
C1097       C  0.93238974  0.39560828  0.60367266    -0.15400
C1098       C  0.94342216  0.37095044  0.57961045    -0.30500
H1099       H  0.91790134  0.40772951  0.57897544     0.13700
H1100       H  0.93558093  0.36454148  0.53820968     0.14200
C1101       C  0.74929187  0.38846469  0.65596870    -0.15400
C1102       C  0.77805975  0.37949804  0.64846883    -0.30500
H1103       H  0.75373752  0.41249909  0.68442185     0.13700
H1104       H  0.77275400  0.35417444  0.62164358     0.14200
C1105       C  0.94593379  0.59287485  0.62574633    -0.15900
C1106       C  0.96012085  0.56909715  0.64391440    -0.30500
H1107       H  0.91460269  0.58241732  0.62877934     0.13700
H1108       H  0.99150710  0.58054192  0.63775257     0.14200
C1109       C  0.95905392  0.38797806  0.85910036    -0.15400
C1110       C  0.94811352  0.34879665  0.87494380    -0.30500
H1111       H  0.98835101  0.41394842  0.87081746     0.13700
H1112       H  0.91891328  0.32188990  0.86536926     0.14200
C1113       C  0.75582671  0.38810564  0.85392748    -0.15400
C1114       C  0.78419274  0.37841527  0.85947849    -0.30500
H1115       H  0.76088094  0.41312365  0.82687101     0.13700
H1116       H  0.77877864  0.35180561  0.88367021     0.14200
C1117       C  0.96381844  0.55421602  0.87288243    -0.15400
C1118       C  0.95400024  0.58248324  0.88828070    -0.30500
H1119       H  0.99147015  0.55770907  0.88735286     0.13700
H1120       H  0.92588594  0.57887807  0.87589870     0.14200
Fe1121     Fe  0.94935435  0.81060592  0.23919370     1.65800
Fe1122     Fe  0.86382900  0.81155217  0.25190046     1.73200
Fe1123     Fe  0.86279394  0.71734694  0.25740195     1.54400
O1124       O  0.88867767  0.70788081  0.19235675    -0.80600
O1125       O  0.82626998  0.77410295  0.31046576    -0.78900
O1126       O  0.94646050  0.76850969  0.18433426    -0.83100
O1127       O  0.95863280  0.78062428  0.30004575    -0.78000
O1128       O  0.81711233  0.70936712  0.20893382    -0.79700
O1129       O  0.90205890  0.85368671  0.30903604    -0.82500
C1130       C  0.93960760  0.74472381  0.32136419     0.98300
C1131       C  0.92175958  0.73100340  0.16987839     1.05700
O1132       O  0.89180022  0.77973790  0.24939327    -1.11500
O1133       O  0.89698131  0.85421977  0.19224405    -0.73900
O1134       O  0.94759001  0.84484321  0.17752866    -0.77400
O1135       O  0.90430163  0.71697045  0.30810118    -0.78100
C1136       C  0.92794154  0.86223377  0.16700761     0.97200
O1137       O  0.95906817  0.85648156  0.29262100    -0.76000
O1138       O  0.82216779  0.77197441  0.19680594    -0.81200
C1139       C  0.81748870  0.74004823  0.33375561     0.99800
C1140       C  0.80537772  0.73236977  0.18852591     1.05700
O1141       O  0.83296655  0.71839866  0.32262868    -0.76900
C1142       C  0.93894521  0.86863816  0.31750310     1.04000
C1143       C  0.70545182  0.69957894  0.12091445     0.87600
C1144       C  0.66192438  0.96277559  0.12411301    -0.52700
C1145       C  0.97155932  0.96943486  0.10790948     0.10500
C1146       C  0.97125054  0.99866052  0.06455880     0.21400
C1147       C  0.71268708  0.69745950  0.06301134    -0.53400
C1148       C  0.00946101  0.01236761  0.03181231     0.10600
C1149       C  0.67942170  0.71882862  0.12320042    -0.52900
C1150       C  0.96146635  0.66946454  0.11782704     0.11100
H1151       H  0.66411170  0.94177622  0.15191379     0.15700
H1152       H  0.94310870  0.98443218  0.04152448     0.01400
H1153       H  0.74295395  0.71266123  0.04940574     0.16000
H1154       H  0.68683651  0.74645551  0.14692872     0.15800
C1155       C  0.71616749  0.70520543  0.39242010     0.87600
C1156       C  0.68786933  0.72008389  0.37708635    -0.52700
C1157       C  0.98338907  0.68933923  0.39508831     0.10500
C1158       C  0.97522419  0.99751088  0.43662692     0.21400
C1159       C  0.71700784  0.70553876  0.45185226    -0.53400
C1160       C  0.00994730  0.01200054  0.47728977     0.10600
C1161       C  0.68384164  0.98914185  0.37067430    -0.52900
C1162       C  0.98193736  0.97114578  0.39542140     0.11100
H1163       H  0.69590524  0.74462892  0.34804364     0.15700
H1164       H  0.94485283  0.98103492  0.45335675     0.01400
H1165       H  0.74502504  0.72273377  0.47293778     0.16000
H1166       H  0.69546614  0.97915234  0.33901880     0.15800
C1167       C  0.93452779  0.71424550  0.12697845    -0.15400
C1168       C  0.92723841  0.67459417  0.12755874    -0.30500
H1169       H  0.96013909  0.73775594  0.10492821     0.13700
H1170       H  0.90319908  0.65061110  0.15110168     0.14200
C1171       C  0.74345842  0.72380074  0.15253838    -0.15400
C1172       C  0.76975449  0.71101008  0.15486676    -0.30500
H1173       H  0.74931603  0.75184572  0.17416831     0.13700
H1174       H  0.76292772  0.68183552  0.13529711     0.14200
C1175       C  0.93795223  0.92689079  0.12200418    -0.15900
C1176       C  0.94534101  0.89539467  0.12640705    -0.30500
H1177       H  0.91205554  0.92461817  0.14037066     0.13700
H1178       H  0.97203089  0.89966112  0.10773230     0.14200
C1179       C  0.96168750  0.73584919  0.36098638    -0.15400
C1180       C  0.95164688  0.69691249  0.37673285    -0.30500
H1181       H  0.99103908  0.76232437  0.37133949     0.13700
H1182       H  0.92214285  0.66989497  0.36879151     0.14200
C1183       C  0.75615795  0.73149473  0.36728661    -0.15400
C1184       C  0.78489930  0.72234487  0.37173343    -0.30500
H1185       H  0.76026456  0.75646249  0.34079787     0.13700
H1186       H  0.78039954  0.69631309  0.39644991     0.14200
C1187       C  0.96156306  0.90258474  0.35614200    -0.15400
C1188       C  0.95069674  0.92911822  0.37474747    -0.30500
H1189       H  0.99165216  0.90964944  0.36414118     0.13700
H1190       H  0.92055703  0.92251427  0.36926839     0.14200
Fe1191     Fe  0.94808361  0.80855247  0.72981933     1.65800
Fe1192     Fe  0.86087407  0.80190958  0.76327934     1.73200
Fe1193     Fe  0.86398289  0.71178629  0.74223786     1.54400
O1194       O  0.89468220  0.71022652  0.67611836    -0.80600
O1195       O  0.83633992  0.76494553  0.82804402    -0.78900
O1196       O  0.94365736  0.77617183  0.66185634    -0.83100
O1197       O  0.96113260  0.77133148  0.77526878    -0.78000
O1198       O  0.81990561  0.70800120  0.69180595    -0.79700
O1199       O  0.90562750  0.84792788  0.81164245    -0.82500
C1200       C  0.94234290  0.73701749  0.80060864     0.98300
C1201       C  0.92235861  0.73797203  0.64771272     1.05700
O1202       O  0.89088817  0.77411253  0.74502984    -1.11500
O1203       O  0.88190327  0.84197024  0.69992962    -0.73900
O1204       O  0.94125709  0.85021486  0.68365399    -0.77400
O1205       O  0.90515146  0.71102320  0.79443624    -0.78100
C1206       C  0.91456837  0.85930730  0.67549444     0.97200
O1207       O  0.96029256  0.84612151  0.79511601    -0.76000
O1208       O  0.81119495  0.76040083  0.71799430    -0.81200
C1209       C  0.81972637  0.72530759  0.83358106     0.99800
C1210       C  0.80053696  0.72712719  0.69115283     1.05700
O1211       O  0.82752583  0.70237658  0.80528851    -0.76900
C1212       C  0.94209569  0.86061278  0.81999319     1.04000
C1213       C  0.69778000  0.69574292  0.62584041     0.87600
C1214       C  0.66786553  0.98334512  0.63783158    -0.52700
C1215       C  0.97778868  0.96095794  0.60790795     0.10500
C1216       C  0.96761105  0.98391751  0.56633181     0.21400
C1217       C  0.70790241  0.70201120  0.56732077    -0.53400
C1218       C  0.00630921  0.01077776  0.53567105     0.10600
C1219       C  0.66425822  0.70628783  0.63106927    -0.52900
C1220       C  0.97036906  0.69872498  0.58847810     0.11100
H1221       H  0.67841730  0.97140509  0.66899472     0.15700
H1222       H  0.94166978  0.96201492  0.54138127     0.01400
H1223       H  0.73802617  0.72403842  0.55495349     0.16000
H1224       H  0.66733344  0.73223956  0.65475663     0.15800
C1225       C  0.71820707  0.69197005  0.89076699     0.87600
C1226       C  0.69267360  0.71001681  0.87451671    -0.52700
C1227       C  0.98509577  0.68876855  0.89718657     0.10500
C1228       C  0.97654003  0.99212907  0.93303577     0.21400
C1229       C  0.71904010  0.69316321  0.94981447    -0.53400
C1230       C  0.01212068  0.01260589  0.97287610     0.10600
C1231       C  0.68728344  0.97997255  0.87515367    -0.52900
C1232       C  0.98560720  0.96507418  0.89578272     0.11100
H1233       H  0.70262708  0.73403105  0.84443249     0.15700
H1234       H  0.94658311  0.97433029  0.95090586     0.01400
H1235       H  0.74748413  0.70963638  0.96975525     0.16000
H1236       H  0.69915773  0.96669988  0.84799750     0.15800
C1237       C  0.92344186  0.72809471  0.59185170    -0.15400
C1238       C  0.94275624  0.71154035  0.56761723    -0.30500
H1239       H  0.90454292  0.73430817  0.56681451     0.13700
H1240       H  0.93594599  0.70478030  0.52602202     0.14200
C1241       C  0.73528620  0.71935958  0.66037943    -0.15400
C1242       C  0.76407206  0.70925654  0.65748684    -0.30500
H1243       H  0.73816098  0.74309031  0.68816092     0.13700
H1244       H  0.75964791  0.68462993  0.63002899     0.14200
C1245       C  0.95803958  0.91508092  0.61463807    -0.15900
C1246       C  0.92323063  0.89428197  0.63962202    -0.30500
H1247       H  0.97738122  0.90216666  0.61440743     0.13700
H1248       H  0.90473285  0.90816166  0.64209950     0.14200
C1249       C  0.96687867  0.72937028  0.83809732    -0.15400
C1250       C  0.95502671  0.69508775  0.86858412    -0.30500
H1251       H  0.99775108  0.75483023  0.83996031     0.13700
H1252       H  0.92381089  0.67043872  0.86998813     0.14200
C1253       C  0.75863036  0.71590587  0.86611298    -0.15400
C1254       C  0.78579926  0.70432923  0.86918399    -0.30500
H1255       H  0.76510322  0.74294335  0.84189766     0.13700
H1256       H  0.77918292  0.67561792  0.88948063     0.14200
C1257       C  0.96642585  0.89568854  0.85712040    -0.15400
C1258       C  0.95526463  0.92168023  0.87721457    -0.30500
H1259       H  0.99715169  0.90398546  0.86214983     0.13700
H1260       H  0.92444829  0.91340688  0.87439595     0.14200
loop_ 
_geom_bond_atom_site_label_1 
_geom_bond_atom_site_label_2 
_geom_bond_distance 
_geom_bond_site_symmetry_2 
_ccdc_geom_bond_type 
Fe1          O17   2.044       .  S
Fe1           O7   2.060       .  S
Fe1          O14   2.070       .  S
Fe1           O6   2.053       .  S
Fe1          O12   1.942       .  S
Fe2           O5   2.034       .  S
Fe2           O9   2.086       .  S
Fe2          O13   2.070       .  S
Fe2          O18   2.068       .  S
Fe2          O12   1.969       .  S
Fe3          O21   2.067       .  S
Fe3           O8   2.065       .  S
Fe3          O15   2.077       .  S
Fe3           O4   2.094       .  S
Fe3          O12   1.979       .  S
O4           C11   1.273       .  A
O5           C19   1.264       .  A
O6           C11   1.267       .  A
O7           C10   1.268       .  A
O8           C20   1.272       .  A
O9           C22   1.270       .  A
C10          O15   1.269       .  A
C10          C59   1.473       .  S
C11          C47   1.478       .  S
O13          C16   1.266       .  A
O14          C16   1.270       .  A
C16          C56   1.485       .  S
O17          C22   1.265       .  A
O18          C20   1.275       .  A
C19          O21   1.267       .  A
C19          C64   1.462       .  S
C20          C52   1.475       .  S
C22          C67   1.468       .  S
C23          C29   1.525       .  S
C23          C27   1.517       .  S
C23          C51   1.506       .  S
C23         C304   1.523   1_545  S
C24         C163   1.524       .  S
C24          H31   1.087       .  S
C24         C865   1.367   1_455  D
C25          C26   1.549       .  S
C25         C444   1.361       .  D
C25          C55   1.476       .  S
C26          C28   1.552       .  S
C26         C170   1.548       .  S
C26          H32   1.109       .  S
C27          H33   1.081       .  S
C27        C1148   1.376       .  D
C28         C587   1.381       .  D
C28         C110   1.506   1_554  S
C29          H34   1.087       .  S
C29         C870   1.360   1_455  D
C30         C306   1.556   1_545  S
C30         C449   1.365       .  D
C30          C48   1.486       .  S
C35          C36   1.527       .  S
C35          C39   1.511       .  S
C35          C63   1.495       .  S
C35         C321   1.523   1_545  S
C36          H43   1.087       .  S
C36         C877   1.359   1_455  D
C37         C318   1.545   1_545  S
C37         C456   1.365       .  D
C37          C60   1.493       .  S
C38          C42   1.543       .  S
C38          C40   1.558       .  S
C38         C177   1.546       .  S
C38          H44   1.108       .  S
C39          H45   1.083       .  S
C39        C1160   1.369       .  D
C40         C599   1.377       .  D
C40          C98   1.498       .  S
C41         C175   1.521       .  S
C41          H46   1.086       .  S
C41         C882   1.365   1_455  D
C42         C461   1.366       .  D
C42          C68   1.484       .  S
C47          H49   1.089       .  S
C47          C48   1.348       .  D
C48          H50   1.086   1_545  S
C51          H53   1.087       .  S
C51          C52   1.344       .  D
C52          H54   1.087       .  S
C55          H57   1.087       .  S
C55          C56   1.343       .  D
C56          H58   1.087       .  S
C59          H61   1.086       .  S
C59          C60   1.347       .  D
C60          H62   1.086       .  S
C63          H65   1.088       .  S
C63          C64   1.342       .  D
C64          H66   1.087       .  S
C67          H69   1.088       .  S
C67          C68   1.343       .  D
C68          H70   1.086       .  S
Fe71         O87   2.069       .  S
Fe71         O77   2.027       .  S
Fe71         O84   2.043       .  S
Fe71         O76   2.094       .  S
Fe71         O82   1.965       .  S
Fe72         O75   2.065       .  S
Fe72         O79   2.076       .  S
Fe72         O83   2.095       .  S
Fe72         O88   2.071       .  S
Fe72         O82   1.978       .  S
Fe73         O91   2.055       .  S
Fe73         O78   2.092       .  S
Fe73         O85   2.107       .  S
Fe73         O74   2.069       .  S
Fe73         O82   1.963       .  S
O74          C81   1.269       .  A
O75          C89   1.271       .  A
O76          C81   1.268       .  A
O77          C80   1.262       .  A
O78          C90   1.277       .  A
O79          C92   1.270       .  A
C80          O85   1.274       .  A
C80         C129   1.474       .  S
C81         C117   1.479       .  S
O83          C86   1.275       .  A
O84          C86   1.265       .  A
C86         C126   1.474       .  S
O87          C92   1.270       .  A
O88          C90   1.272       .  A
C89          O91   1.265       .  A
C89         C134   1.471       .  S
C90         C122   1.478       .  S
C92         C137   1.477       .  S
C93         C374   1.525   1_545  S
C93          C99   1.558   1_455  S
C93          C97   1.526       .  S
C93         C121   1.528       .  S
C94         C233   1.529       .  S
C94         H101   1.087       .  S
C94         C935   1.364   1_455  D
C95          C96   1.536       .  S
C95         C514   1.361       .  D
C95         C125   1.477       .  S
C96         C240   1.542       .  S
C96          C98   1.546       .  S
C96         H102   1.110       .  S
C97         H103   1.083       .  S
C97        C1218   1.369       .  D
C98         C657   1.365       .  D
C99         H104   1.084       .  S
C99         C940   1.384       .  D
C100        C376   1.550   1_545  S
C100        C519   1.377       .  D
C100        C118   1.485       .  S
C105        C106   1.522       .  S
C105        C391   1.528   1_545  S
C105        C109   1.513       .  S
C105        C133   1.505       .  S
C106        H113   1.087       .  S
C106        C947   1.357   1_455  D
C107        C388   1.546   1_545  S
C107        C526   1.365       .  D
C107        C130   1.491       .  S
C108        C247   1.549       .  S
C108        C112   1.556       .  S
C108        C110   1.574       .  S
C108        H114   1.109       .  S
C109        H115   1.081       .  S
C109       C1230   1.376       .  D
C110        C669   1.366       .  D
C111        C245   1.526       .  S
C111        H116   1.085       .  S
C111        C952   1.375   1_455  D
C112        C531   1.372       .  D
C112        C138   1.495       .  S
C117        H119   1.087       .  S
C117        C118   1.350       .  D
C118        H120   1.087       .  S
C121        H123   1.086       .  S
C121        C122   1.361       .  D
C122        H124   1.087       .  S
C125        H127   1.086       .  S
C125        C126   1.340       .  D
C126        H128   1.088       .  S
C129        H131   1.089       .  S
C129        C130   1.344       .  D
C130        H132   1.085   1_545  S
C133        H135   1.087       .  S
C133        C134   1.343       .  D
C134        H136   1.087       .  S
C137        H139   1.085       .  S
C137        C138   1.349       .  D
C138        H140   1.086       .  S
Fe141       O157   2.061       .  S
Fe141       O147   2.077       .  S
Fe141       O154   2.065       .  S
Fe141       O146   2.068       .  S
Fe141       O152   1.944       .  S
Fe142       O145   2.066       .  S
Fe142       O149   2.088       .  S
Fe142       O153   2.082       .  S
Fe142       O158   2.090       .  S
Fe142       O152   1.965       .  S
Fe143       O161   2.046       .  S
Fe143       O148   2.045       .  S
Fe143       O155   2.060       .  S
Fe143       O144   2.063       .  S
Fe143       O152   1.966       .  S
O144        C151   1.263       .  A
O145        C159   1.264       .  A
O146        C151   1.270       .  A
O147        C150   1.274       .  A
O148        C160   1.268       .  A
O149        C162   1.277       .  A
C150        O155   1.268       .  A
C150        C199   1.480       .  S
C151        C187   1.470       .  S
O153        C156   1.269       .  A
O154        C156   1.267       .  A
C156        C196   1.483       .  S
O157        C162   1.271       .  A
O158        C160   1.280       .  A
C159        O161   1.265       .  A
C159        C204   1.476       .  S
C160        C192   1.469       .  S
C162        C207   1.477       .  S
C163        C169   1.520       .  S
C163        C167   1.517       .  S
C163        C191   1.506       .  S
C164        C303   1.526       .  S
C164        H171   1.087       .  S
C164       C1005   1.360   1_455  D
C165        C166   1.547       .  S
C165        C584   1.363       .  D
C165        C195   1.491       .  S
C166        C310   1.552       .  S
C166        C168   1.551       .  S
C166        H172   1.110       .  S
C167        H173   1.081       .  S
C167        C868   1.378       .  D
C168        C727   1.372       .  D
C168        C250   1.513   1_554  S
C169        H174   1.087       .  S
C169       C1010   1.358   1_455  D
C170        C589   1.363       .  D
C170        C188   1.463       .  S
C175        C176   1.528       .  S
C175        C179   1.515       .  S
C175        C203   1.506       .  S
C176        H183   1.084       .  S
C176       C1017   1.372   1_455  D
C177        C596   1.361       .  D
C177        C200   1.478       .  S
C178        C317   1.553       .  S
C178        C182   1.544       .  S
C178        C180   1.558       .  S
C178        H184   1.111       .  S
C179        H185   1.082       .  S
C179        C880   1.375       .  D
C180        C739   1.372       .  D
C180        C238   1.498       .  S
C181        C315   1.521       .  S
C181        H186   1.085       .  S
C181       C1022   1.370   1_455  D
C182        C601   1.373       .  D
C182        C208   1.486       .  S
C187        H189   1.088       .  S
C187        C188   1.335       .  D
C188        H190   1.087       .  S
C191        H193   1.087       .  S
C191        C192   1.338       .  D
C192        H194   1.087       .  S
C195        H197   1.085       .  S
C195        C196   1.349       .  D
C196        H198   1.088       .  S
C199        H201   1.085       .  S
C199        C200   1.342       .  D
C200        H202   1.088       .  S
C203        H205   1.087       .  S
C203        C204   1.344       .  D
C204        H206   1.086       .  S
C207        H209   1.086       .  S
C207        C208   1.345       .  D
C208        H210   1.086       .  S
Fe211       O227   2.065       .  S
Fe211       O217   2.033       .  S
Fe211       O224   2.046       .  S
Fe211       O216   2.090       .  S
Fe211       O222   1.948       .  S
Fe212       O215   2.074       .  S
Fe212       O219   2.079       .  S
Fe212       O223   2.110       .  S
Fe212       O228   2.066       .  S
Fe212       O222   1.963       .  S
Fe213       O231   2.046       .  S
Fe213       O218   2.082       .  S
Fe213       O225   2.099       .  S
Fe213       O214   2.059       .  S
Fe213       O222   1.956       .  S
O214        C221   1.266       .  A
O215        C229   1.276       .  A
O216        C221   1.267       .  A
O217        C220   1.264       .  A
O218        C230   1.274       .  A
O219        C232   1.270       .  A
C220        O225   1.274       .  A
C220        C269   1.470       .  S
C221        C257   1.473       .  S
O223        C226   1.278       .  A
O224        C226   1.267       .  A
C226        C266   1.477       .  S
O227        C232   1.269       .  A
O228        C230   1.272       .  A
C229        O231   1.264       .  A
C229        C274   1.468       .  S
C230        C262   1.474       .  S
C232        C277   1.476       .  S
C233        C239   1.544       .  S
C233        C237   1.526       .  S
C233        C261   1.519       .  S
C234        C373   1.524       .  S
C234        H241   1.087       .  S
C234       C1075   1.364   1_455  D
C235        C236   1.556       .  S
C235        C654   1.369       .  D
C235        C265   1.483       .  S
C236        C380   1.547       .  S
C236        C238   1.559       .  S
C236        H242   1.110       .  S
C237        H243   1.082       .  S
C237        C938   1.369       .  D
C238        C797   1.368       .  D
C239        H244   1.085       .  S
C239       C1080   1.374   1_455  D
C240        C659   1.376       .  D
C240        C258   1.479       .  S
C245        C246   1.516       .  S
C245        C249   1.508       .  S
C245        C273   1.502       .  S
C246        H253   1.087       .  S
C246       C1087   1.363   1_455  D
C247        C666   1.364       .  D
C247        C270   1.487       .  S
C248        C387   1.548       .  S
C248        C252   1.553       .  S
C248        C250   1.567       .  S
C248        H254   1.109       .  S
C249        H255   1.080       .  S
C249        C950   1.372       .  D
C250        C809   1.376       .  D
C251        C385   1.528       .  S
C251        H256   1.085       .  S
C251       C1092   1.370   1_455  D
C252        C671   1.374       .  D
C252        C278   1.496       .  S
C257        H259   1.087       .  S
C257        C258   1.344       .  D
C258        H260   1.087       .  S
C261        H263   1.086       .  S
C261        C262   1.352       .  D
C262        H264   1.087       .  S
C265        H267   1.086       .  S
C265        C266   1.344       .  D
C266        H268   1.089       .  S
C269        H271   1.088       .  S
C269        C270   1.345       .  D
C270        H272   1.085       .  S
C273        H275   1.088       .  S
C273        C274   1.340       .  D
C274        H276   1.087       .  S
C277        H279   1.085       .  S
C277        C278   1.348       .  D
C278        H280   1.086       .  S
Fe281       O297   2.054       .  S
Fe281       O287   2.066       .  S
Fe281       O294   2.072       .  S
Fe281       O286   2.064       .  S
Fe281       O292   1.952       .  S
Fe282       O285   2.051       .  S
Fe282       O289   2.090       .  S
Fe282       O293   2.071       .  S
Fe282       O298   2.077       .  S
Fe282       O292   1.970       .  S
Fe283       O301   2.071       .  S
Fe283       O288   2.056       .  S
Fe283       O295   2.056       .  S
Fe283       O284   2.103       .  S
Fe283       O292   1.975       .  S
O284        C291   1.270       .  A
O285        C299   1.267       .  A
O286        C291   1.265       .  A
O287        C290   1.273       .  A
O288        C300   1.272       .  A
O289        C302   1.272       .  A
C290        O295   1.266       .  A
C290        C339   1.463       .  S
C291        C327   1.478       .  S
O293        C296   1.269       .  A
O294        C296   1.273       .  A
C296        C336   1.484       .  S
O297        C302   1.267       .  A
O298        C300   1.274       .  A
C299        O301   1.267       .  A
C299        C344   1.469       .  S
C300        C332   1.465       .  S
C302        C347   1.478       .  S
C303        C309   1.517   1_455  S
C303        C307   1.513       .  S
C303        C331   1.507       .  S
C304        H311   1.087       .  S
C304       C1145   1.367   1_455  D
C305        C306   1.549       .  S
C305        C724   1.360       .  D
C305        C335   1.476       .  S
C306        C308   1.562   1_565  S
C306        H312   1.109       .  S
C307        H313   1.081       .  S
C307       C1008   1.374       .  D
C308        C447   1.379       .  D
C308        C390   1.510   1_554  S
C309        H314   1.087       .  S
C309       C1150   1.370       .  D
C310        C729   1.376       .  D
C310        C328   1.489       .  S
C315        C316   1.524       .  S
C315        C319   1.514       .  S
C315        C343   1.509       .  S
C316        H323   1.086       .  S
C316       C1157   1.366   1_455  D
C317        C736   1.366       .  D
C317        C340   1.486       .  S
C318        C322   1.553       .  S
C318        C320   1.566   1_565  S
C318        H324   1.109       .  S
C319        H325   1.080       .  S
C319       C1020   1.378       .  D
C320        C459   1.378       .  D
C320        C378   1.514       .  S
C321        H326   1.086       .  S
C321       C1162   1.369   1_455  D
C322        C741   1.372       .  D
C322        C348   1.492       .  S
C327        H329   1.087       .  S
C327        C328   1.351       .  D
C328        H330   1.087       .  S
C331        H333   1.087       .  S
C331        C332   1.348       .  D
C332        H334   1.087       .  S
C335        H337   1.087       .  S
C335        C336   1.342       .  D
C336        H338   1.087       .  S
C339        H341   1.087       .  S
C339        C340   1.346       .  D
C340        H342   1.086       .  S
C343        H345   1.088       .  S
C343        C344   1.343       .  D
C344        H346   1.086       .  S
C347        H349   1.087       .  S
C347        C348   1.348       .  D
C348        H350   1.086       .  S
Fe351       O367   2.051       .  S
Fe351       O357   2.059       .  S
Fe351       O364   2.062       .  S
Fe351       O356   2.066       .  S
Fe351       O362   1.961       .  S
Fe352       O355   2.068       .  S
Fe352       O359   2.081       .  S
Fe352       O363   2.091       .  S
Fe352       O368   2.081       .  S
Fe352       O362   1.984       .  S
Fe353       O371   2.037       .  S
Fe353       O358   2.076       .  S
Fe353       O365   2.103       .  S
Fe353       O354   2.068       .  S
Fe353       O362   1.969       .  S
O354        C361   1.265       .  A
O355        C369   1.271       .  A
O356        C361   1.268       .  A
O357        C360   1.271       .  A
O358        C370   1.276       .  A
O359        C372   1.269       .  A
C360        O365   1.277       .  A
C360        C409   1.493       .  S
C361        C397   1.484       .  S
O363        C366   1.276       .  A
O364        C366   1.271       .  A
C366        C406   1.478       .  S
O367        C372   1.263       .  A
O368        C370   1.270       .  A
C369        O371   1.262       .  A
C369        C414   1.451       .  S
C370        C402   1.481       .  S
C372        C417   1.477       .  S
C373        C379   1.552       .  S
C373        C377   1.522       .  S
C373        C401   1.528       .  S
C374        H381   1.088       .  S
C374       C1215   1.352   1_455  D
C375        C376   1.544       .  S
C375        C794   1.363       .  D
C375        C405   1.489       .  S
C376        C378   1.552   1_565  S
C376        H382   1.109       .  S
C377        H383   1.080       .  S
C377       C1078   1.366       .  D
C378        C517   1.369       .  D
C379        H384   1.085       .  S
C379       C1220   1.381   1_455  D
C380        C799   1.365       .  D
C380        C398   1.485       .  S
C385        C386   1.522       .  S
C385        C389   1.495       .  S
C385        C413   1.505       .  S
C386        H393   1.084       .  S
C386       C1227   1.371   1_455  D
C387        C806   1.363       .  D
C387        C410   1.486       .  S
C388        C392   1.549       .  S
C388        C390   1.567   1_565  S
C388        H394   1.109       .  S
C389        H395   1.080       .  S
C389       C1090   1.370       .  D
C390        C529   1.374       .  D
C391        H396   1.086       .  S
C391       C1232   1.371   1_455  D
C392        C811   1.375       .  D
C392        C418   1.487       .  S
C397        H399   1.086       .  S
C397        C398   1.345       .  D
C398        H400   1.087       .  S
C401        H403   1.086       .  S
C401        C402   1.363       .  D
C402        H404   1.087       .  S
C405        H407   1.086       .  S
C405        C406   1.346       .  D
C406        H408   1.088       .  S
C409        H411   1.086       .  S
C409        C410   1.351       .  D
C410        H412   1.087       .  S
C413        H415   1.087       .  S
C413        C414   1.327       .  D
C414        H416   1.088       .  S
C417        H419   1.087       .  S
C417        C418   1.344       .  D
C418        H420   1.086       .  S
Fe421       O437   2.035       .  S
Fe421       O427   2.077       .  S
Fe421       O434   2.084       .  S
Fe421       O426   2.050       .  S
Fe421       O432   1.952       .  S
Fe422       O425   2.057       .  S
Fe422       O429   2.098       .  S
Fe422       O433   2.069       .  S
Fe422       O438   2.080       .  S
Fe422       O432   1.975       .  S
Fe423       O441   2.067       .  S
Fe423       O428   2.058       .  S
Fe423       O435   2.065       .  S
Fe423       O424   2.082       .  S
Fe423       O432   1.980       .  S
O424        C431   1.268       .  A
O425        C439   1.267       .  A
O426        C431   1.261       .  A
O427        C430   1.276       .  A
O428        C440   1.272       .  A
O429        C442   1.272       .  A
C430        O435   1.271       .  A
C430        C479   1.472       .  S
C431        C467   1.478       .  S
O433        C436   1.268       .  A
O434        C436   1.275       .  A
C436        C476   1.483       .  S
O437        C442   1.261       .  A
O438        C440   1.277       .  A
C439        O441   1.265       .  A
C439        C484   1.475       .  S
C440        C472   1.470       .  S
C442        C487   1.474       .  S
C443        C724   1.525   1_545  S
C443        C449   1.517       .  S
C443        C447   1.516       .  S
C443        C471   1.506       .  S
C444        C583   1.526       .  S
C444        H451   1.087       .  S
C445        C446   1.554       .  S
C445        C864   1.357       .  D
C445        C475   1.477       .  S
C446        C590   1.553       .  S
C446        C448   1.560       .  S
C446        H452   1.109       .  S
C447        H453   1.080       .  S
C448       C1007   1.383       .  D
C448        C530   1.514   1_554  S
C449        H454   1.087       .  S
C450        C726   1.543   1_545  S
C450        C869   1.371       .  D
C450        C468   1.484       .  S
C455        C456   1.523       .  S
C455        C741   1.525   1_545  S
C455        C459   1.516       .  S
C455        C483   1.512       .  S
C456        H463   1.085       .  S
C457        C738   1.552   1_545  S
C457        C876   1.365       .  D
C457        C480   1.491       .  S
C458        C597   1.545       .  S
C458        C462   1.546       .  S
C458        C460   1.560       .  S
C458        H464   1.109       .  S
C459        H465   1.081       .  S
C460       C1019   1.369       .  D
C460        C518   1.491       .  S
C461        C595   1.520       .  S
C461        H466   1.087       .  S
C462        C881   1.372       .  D
C462        C488   1.488       .  S
C467        H469   1.088       .  S
C467        C468   1.343       .  D
C468        H470   1.086       .  S
C471        H473   1.087       .  S
C471        C472   1.343       .  D
C472        H474   1.087       .  S
C475        H477   1.087       .  S
C475        C476   1.340       .  D
C476        H478   1.086       .  S
C479        H481   1.086       .  S
C479        C480   1.350       .  D
C480        H482   1.086       .  S
C483        H485   1.088       .  S
C483        C484   1.341       .  D
C484        H486   1.086       .  S
C487        H489   1.089       .  S
C487        C488   1.342       .  D
C488        H490   1.086       .  S
Fe491       O507   2.053       .  S
Fe491       O497   2.050       .  S
Fe491       O504   2.069       .  S
Fe491       O496   2.074       .  S
Fe491       O502   1.973       .  S
Fe492       O495   2.059       .  S
Fe492       O499   2.095       .  S
Fe492       O503   2.073       .  S
Fe492       O508   2.083       .  S
Fe492       O502   1.988       .  S
Fe493       O511   2.055       .  S
Fe493       O498   2.078       .  S
Fe493       O505   2.079       .  S
Fe493       O494   2.086       .  S
Fe493       O502   1.984       .  S
O494        C501   1.268       .  A
O495        C509   1.268       .  A
O496        C501   1.266       .  A
O497        C500   1.268       .  A
O498        C510   1.278       .  A
O499        C512   1.274       .  A
C500        O505   1.270       .  A
C500        C549   1.469       .  S
C501        C537   1.479       .  S
O503        C506   1.269       .  A
O504        C506   1.272       .  A
C506        C546   1.485       .  S
O507        C512   1.266       .  A
O508        C510   1.275       .  A
C509        O511   1.262       .  A
C509        C554   1.470       .  S
C510        C542   1.479       .  S
C512        C557   1.480       .  S
C513        C794   1.524   1_545  S
C513        C519   1.551       .  S
C513        C517   1.526       .  S
C513        C541   1.525       .  S
C514        C653   1.528       .  S
C514        H521   1.087       .  S
C515        C516   1.551       .  S
C515        C934   1.362       .  D
C515        C545   1.477       .  S
C516        C660   1.547       .  S
C516        C518   1.546       .  S
C516        H522   1.109       .  S
C517        H523   1.081       .  S
C518       C1077   1.373       .  D
C519        H524   1.085       .  S
C520        C796   1.560   1_545  S
C520        C939   1.381       .  D
C520        C538   1.493       .  S
C525        C526   1.520       .  S
C525        C811   1.527   1_545  S
C525        C529   1.508       .  S
C525        C553   1.508       .  S
C526        H533   1.087       .  S
C527        C808   1.551   1_545  S
C527        C946   1.367       .  D
C527        C550   1.491       .  S
C528        C667   1.552       .  S
C528        C532   1.548       .  S
C528        C530   1.569       .  S
C528        H534   1.109       .  S
C529        H535   1.080       .  S
C530       C1089   1.372       .  D
C531        C665   1.521       .  S
C531        H536   1.085       .  S
C532        C951   1.374       .  D
C532        C558   1.495       .  S
C537        H539   1.087       .  S
C537        C538   1.354       .  D
C538        H540   1.087       .  S
C541        H543   1.086       .  S
C541        C542   1.358       .  D
C542        H544   1.088       .  S
C545        H547   1.087       .  S
C545        C546   1.341       .  D
C546        H548   1.087       .  S
C549        H551   1.087       .  S
C549        C550   1.346       .  D
C550        H552   1.086   1_545  S
C553        H555   1.089       .  S
C553        C554   1.342       .  D
C554        H556   1.086       .  S
C557        H559   1.087       .  S
C557        C558   1.346       .  D
C558        H560   1.086       .  S
Fe561       O577   2.062       .  S
Fe561       O567   2.077       .  S
Fe561       O574   2.066       .  S
Fe561       O566   2.073       .  S
Fe561       O572   1.951       .  S
Fe562       O565   2.059       .  S
Fe562       O569   2.082       .  S
Fe562       O573   2.083       .  S
Fe562       O578   2.093       .  S
Fe562       O572   1.976       .  S
Fe563       O581   2.065       .  S
Fe563       O568   2.037       .  S
Fe563       O575   2.052       .  S
Fe563       O564   2.072       .  S
Fe563       O572   1.971       .  S
O564        C571   1.266       .  A
O565        C579   1.266       .  A
O566        C571   1.270       .  A
O567        C570   1.275       .  A
O568        C580   1.264       .  A
O569        C582   1.271       .  A
C570        O575   1.265       .  A
C570        C619   1.474       .  S
C571        C607   1.483       .  S
O573        C576   1.273       .  A
O574        C576   1.271       .  A
C576        C616   1.479       .  S
O577        C582   1.268       .  A
O578        C580   1.275       .  A
C579        O581   1.270       .  A
C579        C624   1.474       .  S
C580        C612   1.466       .  S
C582        C627   1.479       .  S
C583        C589   1.516       .  S
C583        C587   1.516       .  S
C583        C611   1.510       .  S
C584        C723   1.526       .  S
C584        H591   1.087       .  S
C585        C586   1.552       .  S
C585       C1004   1.369       .  D
C585        C615   1.489       .  S
C586        C730   1.552       .  S
C586        C588   1.563       .  S
C586        H592   1.109       .  S
C587        H593   1.082       .  S
C588       C1147   1.376       .  D
C588        C670   1.511   1_554  S
C589        H594   1.087       .  S
C590       C1009   1.359       .  D
C590        C608   1.475       .  S
C595        C596   1.528       .  S
C595        C599   1.519       .  S
C595        C623   1.508       .  S
C596        H603   1.087       .  S
C597       C1016   1.357       .  D
C597        C620   1.470       .  S
C598        C737   1.549       .  S
C598        C602   1.546       .  S
C598        C600   1.569       .  S
C598        H604   1.108       .  S
C599        H605   1.083       .  S
C600       C1159   1.371       .  D
C600        C658   1.507       .  S
C601        C735   1.535       .  S
C601        H606   1.085       .  S
C602       C1021   1.368       .  D
C602        C628   1.488       .  S
C607        H609   1.086       .  S
C607        C608   1.341       .  D
C608        H610   1.087       .  S
C611        H613   1.087       .  S
C611        C612   1.341       .  D
C612        H614   1.088       .  S
C615        H617   1.086       .  S
C615        C616   1.348       .  D
C616        H618   1.088       .  S
C619        H621   1.087       .  S
C619        C620   1.338       .  D
C620        H622   1.088       .  S
C623        H625   1.087       .  S
C623        C624   1.343       .  D
C624        H626   1.087       .  S
C627        H629   1.087       .  S
C627        C628   1.347       .  D
C628        H630   1.086       .  S
Fe631       O647   2.057       .  S
Fe631       O637   2.053       .  S
Fe631       O644   2.073       .  S
Fe631       O636   2.064       .  S
Fe631       O642   1.958       .  S
Fe632       O635   2.028       .  S
Fe632       O639   2.073       .  S
Fe632       O643   2.065       .  S
Fe632       O648   2.067       .  S
Fe632       O642   1.977       .  S
Fe633       O651   2.028       .  S
Fe633       O638   2.090       .  S
Fe633       O645   2.089       .  S
Fe633       O634   2.056       .  S
Fe633       O642   1.980       .  S
O634        C641   1.262       .  A
O635        C649   1.261       .  A
O636        C641   1.269       .  A
O637        C640   1.269       .  A
O638        C650   1.281       .  A
O639        C652   1.269       .  A
C640        O645   1.273       .  A
C640        C689   1.476       .  S
C641        C677   1.481       .  S
O643        C646   1.266       .  A
O644        C646   1.271       .  A
C646        C686   1.481       .  S
O647        C652   1.267       .  A
O648        C650   1.275       .  A
C649        O651   1.254       .  A
C649        C694   1.450       .  S
C650        C682   1.474       .  S
C652        C697   1.472       .  S
C653        C659   1.549       .  S
C653        C657   1.526       .  S
C653        C681   1.517       .  S
C654        C793   1.518       .  S
C654        H661   1.087       .  S
C655        C656   1.538       .  S
C655       C1074   1.353       .  D
C655        C685   1.476       .  S
C656        C800   1.550       .  S
C656        C658   1.543       .  S
C656        H662   1.109       .  S
C657        H663   1.084       .  S
C658       C1217   1.375       .  D
C659        H664   1.085       .  S
C660       C1079   1.366       .  D
C660        C678   1.474       .  S
C665        C666   1.514       .  S
C665        C669   1.496       .  S
C665        C693   1.486       .  S
C666        H673   1.086       .  S
C667       C1086   1.368       .  D
C667        C690   1.496       .  S
C668        C807   1.546       .  S
C668        C672   1.553       .  S
C668        C670   1.565       .  S
C668        H674   1.109       .  S
C669        H675   1.082       .  S
C670       C1229   1.374       .  D
C671        C805   1.524       .  S
C671        H676   1.085       .  S
C672       C1091   1.374       .  D
C672        C698   1.493       .  S
C677        H679   1.087       .  S
C677        C678   1.338       .  D
C678        H680   1.087       .  S
C681        H683   1.086       .  S
C681        C682   1.356       .  D
C682        H684   1.087       .  S
C685        H687   1.087       .  S
C685        C686   1.340       .  D
C686        H688   1.088       .  S
C689        H691   1.086       .  S
C689        C690   1.348       .  D
C690        H692   1.086       .  S
C693        H695   1.088       .  S
C693        C694   1.336       .  D
C694        H696   1.087       .  S
C697        H699   1.084       .  S
C697        C698   1.346       .  D
C698        H700   1.086       .  S
Fe701       O717   2.073       .  S
Fe701       O707   2.045       .  S
Fe701       O714   2.042       .  S
Fe701       O706   2.071       .  S
Fe701       O712   1.946       .  S
Fe702       O705   2.060       .  S
Fe702       O709   2.082       .  S
Fe702       O713   2.100       .  S
Fe702       O718   2.069       .  S
Fe702       O712   1.977       .  S
Fe703       O721   2.043       .  S
Fe703       O708   2.099       .  S
Fe703       O715   2.107       .  S
Fe703       O704   2.069       .  S
Fe703       O712   1.966       .  S
O704        C711   1.266       .  A
O705        C719   1.270       .  A
O706        C711   1.270       .  A
O707        C710   1.267       .  A
O708        C720   1.279       .  A
O709        C722   1.269       .  A
C710        O715   1.276       .  A
C710        C759   1.479       .  S
C711        C747   1.483       .  S
O713        C716   1.276       .  A
O714        C716   1.265       .  A
C716        C756   1.474       .  S
O717        C722   1.270       .  A
O718        C720   1.273       .  A
C719        O721   1.261       .  A
C719        C764   1.464       .  S
C720        C752   1.482       .  S
C722        C767   1.482       .  S
C723        C729   1.550       .  S
C723        C727   1.525       .  S
C723        C751   1.526       .  S
C724        H731   1.087       .  S
C725        C726   1.543       .  S
C725       C1144   1.366       .  D
C725        C755   1.478       .  S
C726        C728   1.556   1_565  S
C726        H732   1.110       .  S
C727        H733   1.081       .  S
C728        C867   1.373       .  D
C728        C810   1.499   1_554  S
C729        H734   1.085       .  S
C730       C1149   1.361       .  D
C730        C748   1.475       .  S
C735        C736   1.506       .  S
C735        C739   1.504       .  S
C735        C763   1.499       .  S
C736        H743   1.086       .  S
C737       C1156   1.366       .  D
C737        C760   1.495       .  S
C738        C742   1.561       .  S
C738        C740   1.573   1_565  S
C738        H744   1.109       .  S
C739        H745   1.086       .  S
C740        C879   1.374       .  D
C740        C798   1.516       .  S
C741        H746   1.085       .  S
C742       C1161   1.370       .  D
C742        C768   1.504       .  S
C747        H749   1.087       .  S
C747        C748   1.343       .  D
C748        H750   1.087       .  S
C751        H753   1.086       .  S
C751        C752   1.358       .  D
C752        H754   1.087       .  S
C755        H757   1.086       .  S
C755        C756   1.341       .  D
C756        H758   1.089       .  S
C759        H761   1.087       .  S
C759        C760   1.348       .  D
C760        H762   1.086       .  S
C763        H765   1.088       .  S
C763        C764   1.337       .  D
C764        H766   1.087       .  S
C767        H769   1.084       .  S
C767        C768   1.354       .  D
C768        H770   1.085       .  S
Fe771       O787   2.048       .  S
Fe771       O777   2.068       .  S
Fe771       O784   2.093       .  S
Fe771       O776   2.056       .  S
Fe771       O782   1.954       .  S
Fe772       O775   2.053       .  S
Fe772       O779   2.069       .  S
Fe772       O783   2.074       .  S
Fe772       O788   2.061       .  S
Fe772       O782   1.960       .  S
Fe773       O791   2.086       .  S
Fe773       O778   2.074       .  S
Fe773       O785   2.066       .  S
Fe773       O774   2.113       .  S
Fe773       O782   1.970       .  S
O774        C781   1.273       .  A
O775        C789   1.266       .  A
O776        C781   1.266       .  A
O777        C780   1.273       .  A
O778        C790   1.278       .  A
O779        C792   1.270       .  A
C780        O785   1.271       .  A
C780        C829   1.467       .  S
C781        C817   1.475       .  S
O783        C786   1.270       .  A
O784        C786   1.276       .  A
C786        C826   1.492       .  S
O787        C792   1.265       .  A
O788        C790   1.271       .  A
C789        O791   1.269       .  A
C789        C834   1.478       .  S
C790        C822   1.460       .  S
C792        C837   1.467       .  S
C793        C799   1.538       .  S
C793        C797   1.506       .  S
C793        C821   1.509       .  S
C794        H801   1.087       .  S
C795        C796   1.551       .  S
C795       C1214   1.355       .  D
C795        C825   1.486       .  S
C796        C798   1.549   1_565  S
C796        H802   1.110       .  S
C797        H803   1.086       .  S
C798        C937   1.372       .  D
C799        H804   1.087       .  S
C800       C1219   1.382       .  D
C800        C818   1.498       .  S
C805        C806   1.530       .  S
C805        C809   1.516       .  S
C805        C833   1.518       .  S
C806        H813   1.087       .  S
C807       C1226   1.367       .  D
C807        C830   1.491       .  S
C808        C812   1.542       .  S
C808        C810   1.560   1_565  S
C808        H814   1.110       .  S
C809        H815   1.081       .  S
C810        C949   1.373       .  D
C811        H816   1.086       .  S
C812       C1231   1.369       .  D
C812        C838   1.480       .  S
C817        H819   1.087       .  S
C817        C818   1.353       .  D
C818        H820   1.088       .  S
C821        H823   1.088       .  S
C821        C822   1.330       .  D
C822        H824   1.087       .  S
C825        H827   1.087       .  S
C825        C826   1.345       .  D
C826        H828   1.087       .  S
C829        H831   1.085       .  S
C829        C830   1.346       .  D
C830        H832   1.086       .  S
C833        H835   1.088       .  S
C833        C834   1.349       .  D
C834        H836   1.086       .  S
C837        H839   1.086       .  S
C837        C838   1.343       .  D
C838        H840   1.086       .  S
Fe841       O857   2.056       .  S
Fe841       O847   2.052       .  S
Fe841       O854   2.061       .  S
Fe841       O846   2.072       .  S
Fe841       O852   1.949       .  S
Fe842       O845   2.076       .  S
Fe842       O849   2.069       .  S
Fe842       O853   2.099       .  S
Fe842       O858   2.056       .  S
Fe842       O852   1.977       .  S
Fe843       O861   2.038       .  S
Fe843       O848   2.080       .  S
Fe843       O855   2.079       .  S
Fe843       O844   2.065       .  S
Fe843       O852   1.980       .  S
O844        C851   1.269       .  A
O845        C859   1.274       .  A
O846        C851   1.275       .  A
O847        C850   1.264       .  A
O848        C860   1.273       .  A
O849        C862   1.268       .  A
C850        O855   1.266       .  A
C850        C899   1.480       .  S
C851        C887   1.478       .  S
O853        C856   1.273       .  A
O854        C856   1.268       .  A
C856        C896   1.486       .  S
O857        C862   1.268       .  A
O858        C860   1.267       .  A
C859        O861   1.262       .  A
C859        C904   1.464       .  S
C860        C892   1.475       .  S
C862        C907   1.468       .  S
C863       C1144   1.523   1_545  S
C863        C869   1.532       .  S
C863        C867   1.514       .  S
C863        C891   1.511       .  S
C864       C1003   1.521       .  S
C864        H871   1.087       .  S
C865        C866   1.558       .  S
C865        C895   1.497       .  S
C866       C1010   1.550       .  S
C866        C868   1.559   1_655  S
C866        H872   1.109       .  S
C867        H873   1.083       .  S
C868        C950   1.507   1_554  S
C869        H874   1.086       .  S
C870       C1146   1.545   1_545  S
C870        C888   1.472       .  S
C875        C876   1.515       .  S
C875       C1161   1.522   1_545  S
C875        C879   1.511       .  S
C875        C903   1.502       .  S
C876        H883   1.085       .  S
C877       C1158   1.544   1_545  S
C877        C900   1.472       .  S
C878       C1017   1.546       .  S
C878        C882   1.542       .  S
C878        C880   1.561   1_655  S
C878        H884   1.108       .  S
C879        H885   1.081       .  S
C880        C938   1.503       .  S
C881       C1015   1.527       .  S
C881        H886   1.086       .  S
C882        C908   1.484       .  S
C887        H889   1.087   1_545  S
C887        C888   1.340       .  D
C888        H890   1.088       .  S
C891        H893   1.087   1_545  S
C891        C892   1.344       .  D
C892        H894   1.087       .  S
C895        H897   1.085       .  S
C895        C896   1.352       .  D
C896        H898   1.088       .  S
C899        H901   1.087   1_545  S
C899        C900   1.344       .  D
C900        H902   1.087       .  S
C903        H905   1.088       .  S
C903        C904   1.335       .  D
C904        H906   1.087       .  S
C907        H909   1.088       .  S
C907        C908   1.344       .  D
C908        H910   1.086       .  S
Fe911       O927   2.054       .  S
Fe911       O917   2.057       .  S
Fe911       O924   2.064       .  S
Fe911       O916   2.093       .  S
Fe911       O922   1.971       .  S
Fe912       O915   2.058       .  S
Fe912       O919   2.083       .  S
Fe912       O923   2.087       .  S
Fe912       O928   2.090       .  S
Fe912       O922   1.986       .  S
Fe913       O931   2.055       .  S
Fe913       O918   2.067       .  S
Fe913       O925   2.074       .  S
Fe913       O914   2.060       .  S
Fe913       O922   1.970       .  S
O914        C921   1.270       .  A
O915        C929   1.273       .  A
O916        C921   1.270       .  A
O917        C920   1.266       .  A
O918        C930   1.269       .  A
O919        C932   1.270       .  A
C920        O925   1.265       .  A
C920        C969   1.475       .  S
C921        C957   1.472       .  S
O923        C926   1.276       .  A
O924        C926   1.272       .  A
C926        C966   1.479       .  S
O927        C932   1.265       .  A
O928        C930   1.271       .  A
C929        O931   1.268       .  A
C929        C974   1.463       .  S
C930        C962   1.483       .  S
C932        C977   1.478       .  S
C933       C1214   1.525   1_545  S
C933        C939   1.551       .  S
C933        C937   1.528       .  S
C933        C961   1.533       .  S
C934       C1073   1.524       .  S
C934        H941   1.087       .  S
C935        C936   1.541       .  S
C935        C965   1.485       .  S
C936       C1080   1.545       .  S
C936        C938   1.548   1_655  S
C936        H942   1.109       .  S
C937        H943   1.081       .  S
C939        H944   1.085       .  S
C940       C1216   1.547   1_545  S
C940        C958   1.489       .  S
C945        C946   1.513       .  S
C945       C1231   1.526   1_545  S
C945        C949   1.508       .  S
C945        C973   1.498       .  S
C946        H953   1.085       .  S
C947       C1228   1.546   1_545  S
C947        C970   1.469       .  S
C948       C1087   1.546       .  S
C948        C952   1.551       .  S
C948        C950   1.565   1_655  S
C948        H954   1.109       .  S
C949        H955   1.083       .  S
C951       C1085   1.531       .  S
C951        H956   1.085       .  S
C952        C978   1.491       .  S
C957        H959   1.088       .  S
C957        C958   1.347       .  D
C958        H960   1.088       .  S
C961        H963   1.086       .  S
C961        C962   1.360       .  D
C962        H964   1.088       .  S
C965        H967   1.086       .  S
C965        C966   1.345       .  D
C966        H968   1.088       .  S
C969        H971   1.087   1_545  S
C969        C970   1.342       .  D
C970        H972   1.087       .  S
C973        H975   1.088       .  S
C973        C974   1.340       .  D
C974        H976   1.087       .  S
C977        H979   1.087       .  S
C977        C978   1.346       .  D
C978        H980   1.086       .  S
Fe981       O997   2.071       .  S
Fe981       O987   2.072       .  S
Fe981       O994   2.072       .  S
Fe981       O986   2.078       .  S
Fe981       O992   1.951       .  S
Fe982       O985   2.039       .  S
Fe982       O989   2.078       .  S
Fe982       O993   2.057       .  S
Fe982       O998   2.071       .  S
Fe982       O992   1.965       .  S
Fe983      O1001   2.050       .  S
Fe983       O988   2.067       .  S
Fe983       O995   2.082       .  S
Fe983       O984   2.047       .  S
Fe983       O992   1.976       .  S
O984        C991   1.259       .  A
O985        C999   1.262       .  A
O986        C991   1.269       .  A
O987        C990   1.274       .  A
O988       C1000   1.275       .  A
O989       C1002   1.272       .  A
C990        O995   1.277       .  A
C990       C1039   1.477       .  S
C991       C1027   1.476       .  S
O993        C996   1.263       .  A
O994        C996   1.270       .  A
C996       C1036   1.481       .  S
O997       C1002   1.273       .  A
O998       C1000   1.277       .  A
C999       O1001   1.258       .  A
C999       C1044   1.463       .  S
C1000      C1032   1.473       .  S
C1002      C1047   1.478       .  S
C1003      C1009   1.521       .  S
C1003      C1007   1.523       .  S
C1003      C1031   1.507       .  S
C1004      C1143   1.525       .  S
C1004      H1011   1.087       .  S
C1005      C1006   1.546       .  S
C1005      C1035   1.473       .  S
C1006      C1150   1.552       .  S
C1006      C1008   1.555   1_655  S
C1006      H1012   1.110       .  S
C1007      H1013   1.081       .  S
C1008      C1090   1.506   1_554  S
C1009      H1014   1.087       .  S
C1010      C1028   1.470       .  S
C1015      C1016   1.524       .  S
C1015      C1019   1.507       .  S
C1015      C1043   1.497       .  S
C1016      H1023   1.087       .  S
C1017      C1040   1.494       .  S
C1018      C1157   1.542       .  S
C1018      C1022   1.555       .  S
C1018      C1020   1.561   1_655  S
C1018      H1024   1.109       .  S
C1019      H1025   1.082       .  S
C1020      C1078   1.511       .  S
C1021      C1155   1.530       .  S
C1021      H1026   1.086       .  S
C1022      C1048   1.493       .  S
C1027      H1029   1.089       .  S
C1027      C1028   1.335       .  D
C1028      H1030   1.087       .  S
C1031      H1033   1.087       .  S
C1031      C1032   1.344       .  D
C1032      H1034   1.087       .  S
C1035      H1037   1.087       .  S
C1035      C1036   1.340       .  D
C1036      H1038   1.088       .  S
C1039      H1041   1.085       .  S
C1039      C1040   1.346       .  D
C1040      H1042   1.086       .  S
C1043      H1045   1.088       .  S
C1043      C1044   1.341       .  D
C1044      H1046   1.087       .  S
C1047      H1049   1.086       .  S
C1047      C1048   1.350       .  D
C1048      H1050   1.086       .  S
Fe1051     O1067   2.055       .  S
Fe1051     O1057   2.041       .  S
Fe1051     O1064   2.037       .  S
Fe1051     O1056   2.063       .  S
Fe1051     O1062   1.961       .  S
Fe1052     O1055   2.066       .  S
Fe1052     O1059   2.094       .  S
Fe1052     O1063   2.100       .  S
Fe1052     O1068   2.067       .  S
Fe1052     O1062   1.982       .  S
Fe1053     O1071   2.061       .  S
Fe1053     O1058   2.063       .  S
Fe1053     O1065   2.074       .  S
Fe1053     O1054   2.094       .  S
Fe1053     O1062   1.982       .  S
O1054      C1061   1.272       .  A
O1055      C1069   1.272       .  A
O1056      C1061   1.267       .  A
O1057      C1060   1.262       .  A
O1058      C1070   1.270       .  A
O1059      C1072   1.275       .  A
C1060      O1065   1.265       .  A
C1060      C1109   1.468       .  S
C1061      C1097   1.474       .  S
O1063      C1066   1.272       .  A
O1064      C1066   1.261       .  A
C1066      C1106   1.477       .  S
O1067      C1072   1.270       .  A
O1068      C1070   1.273       .  A
C1069      O1071   1.267       .  A
C1069      C1114   1.471       .  S
C1070      C1102   1.469       .  S
C1072      C1117   1.477       .  S
C1073      C1079   1.524       .  S
C1073      C1077   1.517       .  S
C1073      C1101   1.509       .  S
C1074      C1213   1.525       .  S
C1074      H1081   1.087       .  S
C1075      C1076   1.542       .  S
C1075      C1105   1.490       .  S
C1076      C1220   1.550       .  S
C1076      C1078   1.553   1_655  S
C1076      H1082   1.109       .  S
C1077      H1083   1.082       .  S
C1079      H1084   1.087       .  S
C1080      C1098   1.481       .  S
C1085      C1086   1.520       .  S
C1085      C1089   1.511       .  S
C1085      C1113   1.511       .  S
C1086      H1093   1.085       .  S
C1087      C1110   1.486       .  S
C1088      C1227   1.555       .  S
C1088      C1092   1.550       .  S
C1088      C1090   1.569   1_655  S
C1088      H1094   1.110       .  S
C1089      H1095   1.080       .  S
C1091      C1225   1.520       .  S
C1091      H1096   1.084       .  S
C1092      C1118   1.492       .  S
C1097      H1099   1.087       .  S
C1097      C1098   1.344       .  D
C1098      H1100   1.087       .  S
C1101      H1103   1.087       .  S
C1101      C1102   1.347       .  D
C1102      H1104   1.087       .  S
C1105      H1107   1.085       .  S
C1105      C1106   1.343       .  D
C1106      H1108   1.089       .  S
C1109      H1111   1.089       .  S
C1109      C1110   1.344       .  D
C1110      H1112   1.085       .  S
C1113      H1115   1.088       .  S
C1113      C1114   1.342       .  D
C1114      H1116   1.086       .  S
C1117      H1119   1.087       .  S
C1117      C1118   1.347       .  D
C1118      H1120   1.086       .  S
Fe1121     O1137   2.048       .  S
Fe1121     O1127   2.044       .  S
Fe1121     O1134   2.042       .  S
Fe1121     O1126   2.049       .  S
Fe1121     O1132   1.953       .  S
Fe1122     O1125   2.059       .  S
Fe1122     O1129   2.083       .  S
Fe1122     O1133   2.097       .  S
Fe1122     O1138   2.066       .  S
Fe1122     O1132   1.984       .  S
Fe1123     O1141   2.051       .  S
Fe1123     O1128   2.061       .  S
Fe1123     O1135   2.078       .  S
Fe1123     O1124   2.071       .  S
Fe1123     O1132   1.986       .  S
O1124      C1131   1.268       .  A
O1125      C1139   1.270       .  A
O1126      C1131   1.265       .  A
O1127      C1130   1.263       .  A
O1128      C1140   1.269       .  A
O1129      C1142   1.271       .  A
C1130      O1135   1.268       .  A
C1130      C1179   1.470       .  S
C1131      C1167   1.469       .  S
O1133      C1136   1.272       .  A
O1134      C1136   1.262       .  A
C1136      C1176   1.478       .  S
O1137      C1142   1.266       .  A
O1138      C1140   1.274       .  A
C1139      O1141   1.264       .  A
C1139      C1184   1.467       .  S
C1140      C1172   1.467       .  S
C1142      C1187   1.471       .  S
C1143      C1149   1.520       .  S
C1143      C1147   1.513       .  S
C1143      C1171   1.508       .  S
C1144      H1151   1.087       .  S
C1145      C1146   1.551       .  S
C1145      C1175   1.484       .  S
C1146      C1148   1.560   1_665  S
C1146      H1152   1.109       .  S
C1147      H1153   1.078       .  S
C1148      C1230   1.505   1_554  S
C1149      H1154   1.087       .  S
C1150      C1168   1.474       .  S
C1155      C1156   1.523       .  S
C1155      C1159   1.513       .  S
C1155      C1183   1.502       .  S
C1156      H1163   1.086       .  S
C1157      C1180   1.485       .  S
C1158      C1162   1.546       .  S
C1158      C1160   1.562   1_665  S
C1158      H1164   1.109       .  S
C1159      H1165   1.081       .  S
C1160      C1218   1.493       .  S
C1161      H1166   1.084       .  S
C1162      C1188   1.487       .  S
C1167      H1169   1.089       .  S
C1167      C1168   1.341       .  D
C1168      H1170   1.086       .  S
C1171      H1173   1.087       .  S
C1171      C1172   1.342       .  D
C1172      H1174   1.087       .  S
C1175      H1177   1.086       .  S
C1175      C1176   1.343       .  D
C1176      H1178   1.089       .  S
C1179      H1181   1.088       .  S
C1179      C1180   1.344       .  D
C1180      H1182   1.086       .  S
C1183      H1185   1.088       .  S
C1183      C1184   1.340       .  D
C1184      H1186   1.087       .  S
C1187      H1189   1.088       .  S
C1187      C1188   1.344       .  D
C1188      H1190   1.086       .  S
Fe1191     O1207   2.054       .  S
Fe1191     O1197   2.056       .  S
Fe1191     O1204   2.063       .  S
Fe1191     O1196   2.058       .  S
Fe1191     O1202   1.967       .  S
Fe1192     O1195   2.045       .  S
Fe1192     O1199   2.090       .  S
Fe1192     O1203   2.058       .  S
Fe1192     O1208   2.087       .  S
Fe1192     O1202   1.981       .  S
Fe1193     O1211   2.066       .  S
Fe1193     O1198   2.094       .  S
Fe1193     O1205   2.098       .  S
Fe1193     O1194   2.096       .  S
Fe1193     O1202   1.978       .  S
O1194      C1201   1.271       .  A
O1195      C1209   1.267       .  A
O1196      C1201   1.263       .  A
O1197      C1200   1.269       .  A
O1198      C1210   1.280       .  A
O1199      C1212   1.271       .  A
C1200      O1205   1.274       .  A
C1200      C1249   1.480       .  S
C1201      C1237   1.475       .  S
O1203      C1206   1.267       .  A
O1204      C1206   1.272       .  A
C1206      C1246   1.475       .  S
O1207      C1212   1.266       .  A
O1208      C1210   1.272       .  A
C1209      O1211   1.266       .  A
C1209      C1254   1.465       .  S
C1210      C1242   1.491       .  S
C1212      C1257   1.480       .  S
C1213      C1219   1.561       .  S
C1213      C1217   1.532       .  S
C1213      C1241   1.534       .  S
C1214      H1221   1.087       .  S
C1215      C1216   1.533       .  S
C1215      C1245   1.466       .  S
C1216      C1218   1.536   1_665  S
C1216      H1222   1.110       .  S
C1217      H1223   1.082       .  S
C1219      H1224   1.085       .  S
C1220      C1238   1.486       .  S
C1225      C1226   1.520       .  S
C1225      C1229   1.504       .  S
C1225      C1253   1.503       .  S
C1226      H1233   1.084       .  S
C1227      C1250   1.501       .  S
C1228      C1232   1.549       .  S
C1228      C1230   1.561   1_665  S
C1228      H1234   1.109       .  S
C1229      H1235   1.078       .  S
C1231      H1236   1.085       .  S
C1232      C1258   1.493       .  S
C1237      H1239   1.087       .  S
C1237      C1238   1.348       .  D
C1238      H1240   1.087       .  S
C1241      H1243   1.086       .  S
C1241      C1242   1.365       .  D
C1242      H1244   1.087       .  S
C1245      H1247   1.087       .  S
C1245      C1246   1.338       .  D
C1246      H1248   1.087       .  S
C1249      H1251   1.084       .  S
C1249      C1250   1.350       .  D
C1250      H1252   1.085       .  S
C1253      H1255   1.089       .  S
C1253      C1254   1.342       .  D
C1254      H1256   1.086       .  S
C1257      H1259   1.087       .  S
C1257      C1258   1.348       .  D
C1258      H1260   1.086       .  S
