geometry optimzed in LAMMPS
_audit_creation_date              2020-12-01 
_audit_creation_method            'lammps2cif' 
_symmetry_space_group_name_H-M    'P1' 
_symmetry_Int_Tables_number       1 
_symmetry_cell_setting            triclinic 
loop_ 
_symmetry_equiv_pos_as_xyz 
  x,y,z 
_cell_length_a                    29.81664912 
_cell_length_b                    47.46175955243341 
_cell_length_c                    43.50087756649854 
_cell_angle_alpha                 89.58070934330179 
_cell_angle_beta                  89.16443739421867 
_cell_angle_gamma                 90.07946028949432 
loop_ 
_atom_site_label 
_atom_site_type_symbol 
_atom_site_fract_x 
_atom_site_fract_y 
_atom_site_fract_z 
_atom_site_charge 
O1          O  0.29359109  0.99974128  0.04243490    -0.74600
O2          O  0.29265582  0.00132684  0.45434225    -0.74600
O3          O  0.29324097  0.04094600  0.99885006    -0.74700
O4          O  0.29373772  0.96025206  0.49759631    -0.74700
O5          O  0.21890004  0.95989968  0.99921511    -0.74700
O6          O  0.21843626  0.04078131  0.50036817    -0.74700
O7          O  0.21808561  0.00113109  0.45570792    -0.74600
O8          O  0.21884351  0.99959909  0.04332977    -0.74700
Ni9        Ni  0.29599421  0.00058681  0.99828408     1.25400
Ni10       Ni  0.21592598  0.00034222  0.49963786     1.25400
C11         C  0.25621945  0.99935955  0.05738727     0.87600
C12         C  0.25512944  0.00146020  0.44041440     0.87500
C13         C  0.25582681  0.05414589  0.99991951     0.87500
C14         C  0.25646554  0.94682626  0.49813648     0.87700
O15         O  0.21010686  0.99913754  0.20469219    -0.74600
O16         O  0.20904265  0.99918525  0.29280875    -0.74600
O17         O  0.20836907  0.03937813  0.24844530    -0.74700
O18         O  0.20991077  0.95876616  0.24902330    -0.74700
O19         O  0.28468004  0.95919126  0.24964425    -0.74700
O20         O  0.28311810  0.04008253  0.24727775    -0.74700
O21         O  0.28358929  0.00031023  0.29220298    -0.74600
O22         O  0.28483649  0.99900907  0.20460321    -0.74700
Ni23       Ni  0.20667918  0.99906841  0.24874777     1.25400
Ni24       Ni  0.28670536  0.99966170  0.24840813     1.25400
C25         C  0.24778280  0.99927916  0.19013657     0.87600
C26         C  0.24626517  0.99984639  0.30712222     0.87500
C27         C  0.24539814  0.05304300  0.24777597     0.87500
C28         C  0.24741153  0.94568888  0.24981837     0.87700
C29         C  0.25611155  0.17581185  0.00869575     0.02900
C30         C  0.21588955  0.19121512  0.00852549    -0.13200
C31         C  0.21638655  0.22082388  0.00918512     0.00400
C32         C  0.25771961  0.23500633  0.00841738    -0.11700
C33         C  0.29817157  0.21995651  0.00837516     0.02900
C34         C  0.29711569  0.19039823  0.00893397    -0.11200
H35         H  0.18411365  0.18015457  0.00782960     0.08500
H36         H  0.25847670  0.25782816  0.00758132     0.06100
H37         H  0.32829413  0.17871154  0.00960169     0.05900
C38         C  0.24527998  0.17518332  0.24311633     0.02900
C39         C  0.20458821  0.18994149  0.24079866    -0.13200
C40         C  0.20392371  0.21949832  0.24086390     0.00400
C41         C  0.24432614  0.23444951  0.24307273    -0.11700
C42         C  0.28527837  0.22009921  0.24541818     0.02900
C43         C  0.28536707  0.19051545  0.24595260    -0.11200
H44         H  0.17329911  0.17846250  0.23900422     0.08500
H45         H  0.24389688  0.25728879  0.24279151     0.06100
H46         H  0.31686355  0.17943298  0.24822971     0.05900
C47         C  0.25711375  0.82511524  0.49745896     0.02900
C48         C  0.29754393  0.81004229  0.49560810    -0.13200
C49         C  0.29730294  0.78058561  0.49295446     0.00400
C50         C  0.25622210  0.76612201  0.49250962    -0.11700
C51         C  0.21559146  0.78097726  0.49389865     0.02900
C52         C  0.21625653  0.81043521  0.49644151    -0.11200
H53         H  0.32922882  0.82125139  0.49603426     0.08500
H54         H  0.25588126  0.74335094  0.49076799     0.06100
H55         H  0.18491021  0.82195902  0.49731254     0.05900
C56         C  0.24007534  0.82374611  0.25465715     0.02900
C57         C  0.27978326  0.80782905  0.25499311    -0.13200
C58         C  0.27823929  0.77832531  0.25691570     0.00400
C59         C  0.23659513  0.76460583  0.25874682    -0.13700
C60         C  0.19661211  0.78018574  0.25905835     0.02900
C61         C  0.19858597  0.80971207  0.25723281    -0.11200
H62         H  0.31201634  0.81835990  0.25329865     0.08500
H63         H  0.23532234  0.74179897  0.25995840     0.06100
H64         H  0.16773624  0.82173652  0.25806446     0.05900
C65         C  0.00630327  0.67593576  0.98783458     0.02900
C66         C  0.46578938  0.69100127  0.98681384    -0.13200
C67         C  0.46568743  0.72051101  0.98804051     0.00400
C68         C  0.00655259  0.73513196  0.98928680    -0.11700
C69         C  0.04727693  0.72041218  0.99053383     0.02900
C70         C  0.04688375  0.69084250  0.98992467    -0.11200
H71         H  0.43419119  0.67974267  0.98584619     0.08500
H72         H  0.00656679  0.75795818  0.99000574     0.06100
H73         H  0.07822972  0.67944221  0.99146853     0.05900
C74         C  0.98975773  0.67436853  0.25871075     0.02900
C75         C  0.02949361  0.69029475  0.25807240    -0.13200
C76         C  0.02806228  0.71981880  0.25845565     0.00400
C77         C  0.98642164  0.73352957  0.25934450    -0.11700
C78         C  0.44635871  0.71792768  0.25970362     0.02900
C79         C  0.44823748  0.68837690  0.25906716    -0.11200
H80         H  0.06166528  0.67972680  0.25687244     0.08500
H81         H  0.98519562  0.75634901  0.25969040     0.06100
H82         H  0.41736205  0.67628934  0.25930414     0.05900
C83         C  0.50644506  0.32562552  0.50788591     0.02900
C84         C  0.04721509  0.31085968  0.50864817    -0.13200
C85         C  0.04765490  0.28129199  0.50976766     0.00400
C86         C  0.50682423  0.26657633  0.51166607    -0.11700
C87         C  0.46587737  0.28108992  0.51136583     0.02900
C88         C  0.46592715  0.31058088  0.50919515    -0.11200
H89         H  0.07863569  0.32237027  0.50797370     0.08500
H90         H  0.50687756  0.24377877  0.51332036     0.06100
H91         H  0.43437288  0.32182747  0.50804512     0.05900
C92         C  0.99609495  0.32457864  0.23959584     0.02900
C93         C  0.03630238  0.30931076  0.23893036    -0.13200
C94         C  0.03579821  0.27977814  0.23862227     0.00400
C95         C  0.99460540  0.26543837  0.23835722    -0.11700
C96         C  0.45404011  0.28049427  0.23907896     0.02900
C97         C  0.45507251  0.31005412  0.24009515    -0.11200
H98         H  0.06808987  0.32040883  0.23932699     0.08500
H99         H  0.99411506  0.24260419  0.23815296     0.06100
H100        H  0.42393185  0.32176610  0.24146710     0.05900
O101        O  0.46707186  0.54102555  0.49935092    -0.74600
O102        O  0.46680531  0.46044139  0.00433521    -0.74600
O103        O  0.46798104  0.50260890  0.04551319    -0.74700
O104        O  0.46569132  0.49873317  0.45794343    -0.74700
O105        O  0.04040920  0.49874896  0.45611314    -0.74700
O106        O  0.04267269  0.50249826  0.04413933    -0.74700
O107        O  0.04163581  0.46040028  0.50220886    -0.74600
O108        O  0.04186203  0.54102477  0.99749872    -0.74700
Ni109      Ni  0.46426168  0.50073049  0.50183185     1.25400
Ni110      Ni  0.04435108  0.50069698  0.49997493     1.25400
C111        C  0.00447505  0.55429005  0.99764907     0.87600
C112        C  0.00420093  0.44719944  0.50405596     0.87500
C113        C  0.50555305  0.50299332  0.05937872     0.87500
C114        C  0.50259801  0.49786609  0.44254607     0.87700
O115        O  0.46156186  0.49966598  0.20724758    -0.74600
O116        O  0.45961174  0.49785758  0.29522206    -0.74600
O117        O  0.45923970  0.53902794  0.25179609    -0.74700
O118        O  0.46135455  0.45849852  0.25065887    -0.74700
O119        O  0.03620667  0.45921289  0.24908795    -0.74700
O120        O  0.03399287  0.53998327  0.25316316    -0.74700
O121        O  0.03431613  0.49758301  0.29510304    -0.74600
O122        O  0.03616539  0.50152393  0.20720666    -0.74700
Ni123      Ni  0.45779620  0.49873419  0.25123733     1.25400
Ni124      Ni  0.03786731  0.49961308  0.25116134     1.25400
C125        C  0.99914557  0.50074386  0.19264846     0.87600
C126        C  0.99668470  0.49749674  0.30970658     0.87500
C127        C  0.49615449  0.55276171  0.25274153     0.87500
C128        C  0.49902218  0.44564287  0.24939410     0.87700
C129        C  0.46493027  0.50933255  0.39362122    -0.09300
C130        C  0.50103884  0.49652311  0.40862918     0.06900
C131        C  0.03457241  0.48305979  0.39085167    -0.03100
C132        C  0.03221611  0.48355616  0.35876954    -0.07600
C133        C  0.99654455  0.49686449  0.34372338     0.06000
C134        C  0.46236075  0.50965168  0.36157368    -0.02600
Br135      Br  0.41273124  0.52957895  0.34403818    -0.02300
H136        H  0.43892243  0.51981216  0.40688958     0.09900
H137        H  0.05826132  0.47312635  0.34548977     0.07900
Br138      Br  0.08287441  0.46212071  0.40873323    -0.02700
C139        C  0.46805889  0.49084732  0.10887113    -0.09300
C140        C  0.50510465  0.50300407  0.09345742     0.06900
C141        C  0.04007980  0.51445862  0.11101386    -0.03100
C142        C  0.03733561  0.51343990  0.14317112    -0.07600
C143        C  0.00018945  0.50126814  0.15855747     0.06000
C144        C  0.46535578  0.48970936  0.14091884    -0.02600
Br145      Br  0.41428198  0.47041557  0.15851950    -0.02300
H146        H  0.44113640  0.48157165  0.09587179     0.09900
H147        H  0.06426930  0.52262696  0.15623072     0.07900
Br148      Br  0.09125937  0.53316233  0.09290093    -0.02700
C149        C  0.02002743  0.40176615  0.22233767    -0.09300
C150        C  0.49932490  0.41472474  0.24767357     0.06900
C151        C  0.47752365  0.39800130  0.27019911    -0.03100
C152        C  0.47654501  0.36870371  0.26706135    -0.07600
C153        C  0.49701689  0.35566730  0.24162709     0.06000
C154        C  0.01867688  0.37247367  0.21901016    -0.02600
Br155      Br  0.04424418  0.35668185  0.18223520    -0.02300
H156        H  0.03619480  0.41454870  0.20464416     0.09900
H157        H  0.46024528  0.35599271  0.28475513     0.07900
Br158      Br  0.45072970  0.41412861  0.30638587    -0.02700
C159        C  0.48130546  0.37176164  0.02865139    -0.09300
C160        C  0.00587818  0.35680793  0.50632828     0.06900
C161        C  0.02907434  0.37189156  0.48296051    -0.03100
C162        C  0.02871959  0.40135905  0.48295943    -0.07600
C163        C  0.00429543  0.41621907  0.50533559     0.06000
C164        C  0.48011843  0.40121886  0.02819915    -0.02600
Br165      Br  0.44697450  0.41993451  0.06021421    -0.02300
H166        H  0.46331933  0.36045362  0.04672120     0.09900
H167        H  0.04659479  0.41274318  0.46488985     0.07900
Br168      Br  0.05869842  0.35347028  0.44917378    -0.02700
C169        C  0.46768753  0.62892525  0.23497963    -0.09300
C170        C  0.99156564  0.64313355  0.25776387     0.06900
C171        C  0.01698365  0.62726552  0.27887440    -0.03100
C172        C  0.01891445  0.59789168  0.27641183    -0.07600
C173        C  0.49489075  0.58378882  0.25370237     0.06000
C174        C  0.46901972  0.59953804  0.23288651    -0.02600
Br175      Br  0.43692051  0.58209484  0.20012059    -0.02300
H176        H  0.44834603  0.64079304  0.21844950     0.09900
H177        H  0.03820251  0.58592439  0.29289285     0.07900
Br178      Br  0.04691253  0.64424330  0.31289596    -0.02700
C179        C  0.47750739  0.63132468  0.01114796    -0.09300
C180        C  0.00575435  0.64466532  0.98936280     0.06900
C181        C  0.03324287  0.62790654  0.47013989    -0.03100
C182        C  0.03291251  0.59854978  0.47360136    -0.07600
C183        C  0.00457626  0.58532143  0.99535288     0.06000
C184        C  0.47649224  0.60198323  0.01413324    -0.02600
Br185      Br  0.43805828  0.58599418  0.04549917    -0.02300
H186        H  0.45655434  0.64384485  0.02632277     0.09900
H187        H  0.05402510  0.58592172  0.45863273     0.07900
Br188      Br  0.06933838  0.64360868  0.43731787    -0.02700
C189        C  0.12316319  0.76936277  0.23541779    -0.09300
C190        C  0.15269490  0.76554910  0.25995234     0.06900
C191        C  0.14032981  0.74724972  0.28432065    -0.03100
C192        C  0.09957138  0.73264382  0.28343695    -0.07600
C193        C  0.07034349  0.73616887  0.25871013     0.06000
C194        C  0.08232684  0.75480853  0.23458421    -0.02600
Br195      Br  0.04551322  0.75973781  0.19912746    -0.02300
H196        H  0.13243384  0.78322163  0.21645793     0.09900
H197        H  0.09043878  0.71859465  0.30226187     0.07900
Br198      Br  0.17684221  0.74247200  0.31995208    -0.02700
C199        C  0.34929028  0.76550081  0.28255392    -0.09300
C200        C  0.32040612  0.76197905  0.25770107     0.06900
C201        C  0.33249373  0.74323819  0.23401635    -0.03100
C202        C  0.37327318  0.72869949  0.23530639    -0.07600
C203        C  0.40252467  0.73256956  0.25993634     0.06000
C204        C  0.38989664  0.75084246  0.28395345    -0.02600
Br205      Br  0.42579867  0.75543853  0.31984366    -0.02300
H206        H  0.33997624  0.77955529  0.30109251     0.09900
H207        H  0.38266813  0.71476975  0.21667664     0.07900
Br208      Br  0.29569479  0.73802248  0.19867261    -0.02700
C209        C  0.10131678  0.75535515  0.46859565    -0.09300
C210        C  0.09025949  0.73600989  0.99207110     0.06900
C211        C  0.12053295  0.73178064  0.01630527    -0.03100
C212        C  0.16132222  0.74642948  0.01637996    -0.07600
C213        C  0.17239061  0.76567016  0.49282516     0.06000
C214        C  0.14198847  0.77008948  0.46876278    -0.02600
Br215      Br  0.15544724  0.79487863  0.43479534    -0.02300
H216        H  0.07848966  0.75866244  0.44975871     0.09900
H217        H  0.18423024  0.74314411  0.03517494     0.07900
Br218      Br  0.10673974  0.70759714  0.05074199    -0.02700
C219        C  0.36911085  0.76582827  0.01631635    -0.09300
C220        C  0.34016088  0.76497512  0.49121726     0.06900
C221        C  0.35269611  0.74939806  0.46498462    -0.03100
C222        C  0.39367322  0.73498782  0.46427318    -0.07600
C223        C  0.42268260  0.73597158  0.98936194     0.06000
C224        C  0.40992092  0.75134161  0.01566196    -0.02600
Br225      Br  0.44588680  0.75186723  0.05189857    -0.02300
H226        H  0.35956879  0.77748915  0.03670517     0.09900
H227        H  0.40319512  0.72322912  0.44395031     0.07900
Br228      Br  0.31604062  0.74827484  0.42910354    -0.02700
C229        C  0.33667238  0.25498450  0.22058296    -0.09300
C230        C  0.32815002  0.23600875  0.24491013     0.06900
C231        C  0.36114778  0.23207424  0.26746525    -0.03100
C232        C  0.40205160  0.24648981  0.26493315    -0.07600
C233        C  0.41061778  0.26530183  0.24048183     0.06000
C234        C  0.37733736  0.26962173  0.21824666    -0.02600
Br235      Br  0.38640815  0.29412843  0.18339005    -0.02300
H236        H  0.31182370  0.25804834  0.20294365     0.09900
H237        H  0.42703655  0.24341288  0.28247829     0.07900
Br238      Br  0.35118504  0.20874971  0.30316498    -0.02700
C239        C  0.09152509  0.24754362  0.21424353    -0.09300
C240        C  0.07849534  0.26401965  0.23949186     0.06900
C241        C  0.10694873  0.26579928  0.26499563    -0.03100
C242        C  0.14774504  0.25131449  0.26488807    -0.07600
C243        C  0.16083354  0.23483655  0.23968303     0.06000
C244        C  0.13251262  0.23313540  0.21409033    -0.02600
Br245      Br  0.14960777  0.21281468  0.17779396    -0.02300
H246        H  0.07014342  0.24634796  0.19436877     0.09900
H247        H  0.16915648  0.25262520  0.28474224     0.07900
Br248      Br  0.09073657  0.28679020  0.30103569    -0.02700
C249        C  0.41575613  0.24565220  0.48798947    -0.09300
C250        C  0.42308887  0.26528242  0.51136670     0.06900
C251        C  0.38919599  0.26983830  0.03371786    -0.03100
C252        C  0.34883507  0.25488924  0.03228603    -0.07600
C253        C  0.34143661  0.23529013  0.00885882     0.06000
C254        C  0.37528663  0.23084831  0.48642560    -0.02600
Br255      Br  0.36701826  0.20639934  0.45198953    -0.02300
H256        H  0.44130422  0.24231098  0.47042585     0.09900
H257        H  0.32321443  0.25835311  0.04976814     0.07900
Br258      Br  0.39696138  0.29518952  0.06743322    -0.02700
C259        C  0.14121995  0.23073154  0.48744421    -0.09300
C260        C  0.17361267  0.23681693  0.00956221     0.06900
C261        C  0.16432297  0.25783632  0.03159652    -0.03100
C262        C  0.12332059  0.27215078  0.03113876    -0.07600
C263        C  0.09084575  0.26585606  0.50917272     0.06000
C264        C  0.10027915  0.24506312  0.48699171    -0.02600
Br265      Br  0.05976406  0.23649065  0.45442243    -0.02300
H266        H  0.14809079  0.21498873  0.47009630     0.09900
H267        H  0.11639352  0.28796675  0.04839935     0.07900
Br268      Br  0.20487244  0.26681678  0.06402997    -0.02700
C269        C  0.21440900  0.12947812  0.26273487    -0.09300
C270        C  0.24549331  0.14381168  0.24366624     0.06900
C271        C  0.27589631  0.12784486  0.22564907    -0.03100
C272        C  0.27579824  0.09842155  0.22791267    -0.07600
C273        C  0.24474241  0.08419025  0.24695187     0.06000
C274        C  0.21342439  0.10002062  0.26424602    -0.02600
Br275      Br  0.16989003  0.08285010  0.29148515    -0.02300
H276        H  0.19094794  0.14127684  0.27685131     0.09900
H277        H  0.29927306  0.08651507  0.21390401     0.07900
Br278      Br  0.31574941  0.14450439  0.19551800    -0.02700
C279        C  0.21876303  0.89999894  0.23090636    -0.09300
C280        C  0.24718688  0.91457288  0.25072444     0.06900
C281        C  0.27383697  0.89914273  0.27136224    -0.03100
C282        C  0.27095659  0.86969569  0.27228404    -0.07600
C283        C  0.24229636  0.85502436  0.25257488     0.06000
C284        C  0.21668335  0.87053541  0.23126031    -0.02600
Br285      Br  0.18088587  0.85283286  0.20050064    -0.02300
H286        H  0.19872853  0.91161308  0.21455160     0.09900
H287        H  0.29078243  0.85819932  0.28884552     0.07900
Br288      Br  0.31258651  0.91717824  0.30011418    -0.02700
C289        C  0.28781782  0.00713103  0.35546805    -0.09300
C290        C  0.24713992  0.00037594  0.34125861     0.06900
C291        C  0.20929730  0.99423829  0.36011173    -0.03100
C292        C  0.21303124  0.99490349  0.39209040    -0.07600
C293        C  0.25378502  0.00152346  0.40628372     0.06000
C294        C  0.29156232  0.00778765  0.38741446    -0.02600
Br295      Br  0.34929136  0.01824305  0.40285794    -0.02300
H296        H  0.31727606  0.01219514  0.34163244     0.09900
H297        H  0.18361881  0.98981232  0.40596017     0.07900
Br298      Br  0.15162506  0.98383954  0.34454259    -0.02700
C299        C  0.21952884  0.01277441  0.10649066    -0.09300
C300        C  0.25532486  0.99923778  0.09133407     0.06900
C301        C  0.28841270  0.98573462  0.10897167    -0.03100
C302        C  0.28510056  0.98604809  0.14105032    -0.07600
C303        C  0.24917222  0.99948170  0.15619052     0.06000
C304        C  0.21627846  0.01316184  0.13853420    -0.02600
Br305      Br  0.16780421  0.03439915  0.15640832    -0.02300
H306        H  0.19416421  0.02360309  0.09330764     0.09900
H307        H  0.31051001  0.97529243  0.15425734     0.07900
Br308      Br  0.33733491  0.96501910  0.09097761    -0.02700
C309        C  0.22950501  0.09836684  0.02425497    -0.09300
C310        C  0.25575796  0.08520825  0.00151875     0.06900
C311        C  0.28234769  0.10193836  0.48149492    -0.03100
C312        C  0.28183947  0.13129304  0.48421544    -0.07600
C313        C  0.25568118  0.14455191  0.00701486     0.06000
C314        C  0.22982803  0.12770513  0.02749288    -0.02600
Br315      Br  0.19741049  0.14322974  0.06185591    -0.02300
H316        H  0.20975899  0.08567342  0.04024653     0.09900
H317        H  0.30171715  0.14388291  0.46820752     0.07900
Br318      Br  0.31823009  0.08597976  0.44907189    -0.02700
C319        C  0.23482031  0.90081661  0.02143554    -0.09300
C320        C  0.25689621  0.91579472  0.49776842     0.06900
C321        C  0.27968443  0.90087125  0.47445501    -0.03100
C322        C  0.27980250  0.87139241  0.47498127    -0.07600
C323        C  0.25757995  0.85631905  0.49857159     0.06000
C324        C  0.23542759  0.87131315  0.02220464    -0.02600
Br325      Br  0.20801583  0.85264546  0.05699253    -0.02300
H326        H  0.21789311  0.91213751  0.03976222     0.09900
H327        H  0.29663821  0.86015385  0.45655755     0.07900
Br328      Br  0.30871226  0.91974251  0.44041152    -0.02700
O329        O  0.29359249  0.99973931  0.54243494    -0.74600
O330        O  0.29265422  0.00132788  0.95434228    -0.74600
O331        O  0.29324335  0.04094443  0.49885052    -0.74700
O332        O  0.29373709  0.96025361  0.99759673    -0.74700
O333        O  0.21890067  0.95989877  0.49921479    -0.74700
O334        O  0.21843386  0.04078227  0.00036798    -0.74700
O335        O  0.21808403  0.00113165  0.95570790    -0.74600
O336        O  0.21884491  0.99959789  0.54332970    -0.74700
Ni337      Ni  0.29599574  0.00058523  0.49828409     1.25400
Ni338      Ni  0.21592446  0.00034312  0.99963790     1.25400
C339        C  0.25622078  0.99935792  0.55738726     0.87600
C340        C  0.25512788  0.00146065  0.94041439     0.87500
C341        C  0.25582947  0.05414463  0.49991978     0.87500
C342        C  0.25646521  0.94682749  0.99813688     0.87700
O343        O  0.21010680  0.99913589  0.70469200    -0.74600
O344        O  0.20904186  0.99918349  0.79280864    -0.74600
O345        O  0.20836923  0.03937642  0.74844520    -0.74700
O346        O  0.20990966  0.95876443  0.74902311    -0.74700
O347        O  0.28467893  0.95918910  0.74964433    -0.74700
O348        O  0.28311827  0.04008035  0.74727793    -0.74700
O349        O  0.28358853  0.00030798  0.79220308    -0.74600
O350        O  0.28483642  0.99900694  0.70460336    -0.74700
Ni351      Ni  0.20667871  0.99906670  0.74874761     1.25400
Ni352      Ni  0.28670490  0.99965950  0.74840827     1.25400
C353        C  0.24778290  0.99927728  0.69013655     0.87600
C354        C  0.24626432  0.99984437  0.80712221     0.87500
C355        C  0.24539852  0.05304106  0.74777602     0.87500
C356        C  0.24741023  0.94568694  0.74981832     0.87700
C357        C  0.25611301  0.17581085  0.50869278     0.02900
C358        C  0.21589095  0.19121406  0.50852115    -0.13200
C359        C  0.21638786  0.22082284  0.50917982     0.00400
C360        C  0.25772088  0.23500534  0.50841203    -0.11700
C361        C  0.29817282  0.21995558  0.50837109     0.02900
C362        C  0.29711704  0.19039734  0.50893120    -0.11200
H363        H  0.18411510  0.18015347  0.50782508     0.08500
H364        H  0.25847796  0.25782715  0.50757515     0.06100
H365        H  0.32829555  0.17871079  0.50959996     0.05900
C366        C  0.24528270  0.17518136  0.74311642     0.02900
C367        C  0.20459109  0.18993968  0.74079867    -0.13200
C368        C  0.20392684  0.21949651  0.74086428     0.00400
C369        C  0.24432930  0.23444754  0.74307344    -0.11700
C370        C  0.28528142  0.22009712  0.74541882     0.02900
C371        C  0.28536989  0.19051333  0.74595295    -0.11200
H372        H  0.17330193  0.17846083  0.73900398     0.08500
H373        H  0.24390016  0.25728684  0.74279253     0.06100
H374        H  0.31686623  0.17943073  0.74823008     0.05900
C375        C  0.25711614  0.82511644  0.99745804     0.02900
C376        C  0.29754656  0.81004377  0.99560664    -0.13200
C377        C  0.29730602  0.78058714  0.99295227     0.00400
C378        C  0.25622538  0.76612331  0.99250730    -0.11700
C379        C  0.21559448  0.78097826  0.99389693     0.02900
C380        C  0.21625913  0.81043617  0.99644053    -0.11200
H381        H  0.32923129  0.82125306  0.99603283     0.08500
H382        H  0.25588488  0.74335228  0.99076498     0.06100
H383        H  0.18491263  0.82195977  0.99731193     0.05900
C384        C  0.24007410  0.82374417  0.75465643     0.02900
C385        C  0.27978218  0.80782724  0.75499206    -0.13200
C386        C  0.27823844  0.77832345  0.75691428     0.00400
C387        C  0.23659438  0.76460386  0.75874525    -0.13700
C388        C  0.19661125  0.78018366  0.75905708     0.02900
C389        C  0.19858488  0.80971000  0.75723203    -0.11200
H390        H  0.31201514  0.81835820  0.75329767     0.08500
H391        H  0.23532176  0.74179698  0.75995654     0.06100
H392        H  0.16773507  0.82173437  0.75806395     0.05900
C393        C  0.00630111  0.67593479  0.48783817     0.02900
C394        C  0.46578697  0.69099994  0.48681783    -0.13200
C395        C  0.46568444  0.72050965  0.48804486     0.00400
C396        C  0.00654932  0.73513095  0.48929110    -0.11700
C397        C  0.04727391  0.72041143  0.49053769     0.02900
C398        C  0.04688132  0.69084178  0.48992825    -0.11200
H399        H  0.43418902  0.67974109  0.48585006     0.08500
H400        H  0.00656315  0.75795716  0.49001012     0.06100
H401        H  0.07822754  0.67944172  0.49147177     0.05900
C402        C  0.98975675  0.67436647  0.75870959     0.02900
C403        C  0.02949263  0.69029267  0.75807123    -0.13200
C404        C  0.02806140  0.71981672  0.75845422     0.00400
C405        C  0.98642077  0.73352753  0.75934291    -0.11700
C406        C  0.44635787  0.71792565  0.75970215     0.02900
C407        C  0.44823657  0.68837485  0.75906590    -0.11200
H408        H  0.06166430  0.67972466  0.75687149     0.08500
H409        H  0.98519481  0.75634697  0.75968869     0.06100
H410        H  0.41736114  0.67628731  0.75930296     0.05900
C411        C  0.50644373  0.32562653  0.00788947     0.02900
C412        C  0.04721378  0.31086079  0.00865261    -0.13200
C413        C  0.04765363  0.28129312  0.00977272     0.00400
C414        C  0.50682296  0.26657738  0.01167092    -0.11700
C415        C  0.46587611  0.28109093  0.01136997     0.02900
C416        C  0.46592583  0.31058184  0.00919862    -0.11200
H417        H  0.07863439  0.32237138  0.00797826     0.08500
H418        H  0.50687630  0.24377985  0.01332553     0.06100
H419        H  0.43437153  0.32182832  0.00804798     0.05900
C420        C  0.99609813  0.32457656  0.73959749     0.02900
C421        C  0.03630554  0.30930869  0.73893172    -0.13200
C422        C  0.03580131  0.27977608  0.73862343     0.00400
C423        C  0.99460851  0.26543631  0.73835843    -0.11700
C424        C  0.45404323  0.28049225  0.73908054     0.02900
C425        C  0.45507569  0.31005209  0.74009695    -0.11200
H426        H  0.06809303  0.32040675  0.73932825     0.08500
H427        H  0.99411818  0.24260214  0.73815394     0.06100
H428        H  0.42393507  0.32176410  0.74146910     0.05900
O429        O  0.46707132  0.54102684  0.99934986    -0.74600
O430        O  0.46680724  0.46044014  0.50433514    -0.74600
O431        O  0.46798268  0.50260709  0.54551371    -0.74700
O432        O  0.46569015  0.49873395  0.95794305    -0.74700
O433        O  0.04040810  0.49874892  0.95611296    -0.74700
O434        O  0.04267438  0.50249683  0.54413952    -0.74700
O435        O  0.04163389  0.46040110  0.00220940    -0.74600
O436        O  0.04186264  0.54102406  0.49749972    -0.74700
Ni437      Ni  0.46426035  0.50073179  0.00183138     1.25400
Ni438      Ni  0.04434976  0.50069771  0.99997473     1.25400
C439        C  0.00447540  0.55428904  0.49765029     0.87600
C440        C  0.00419881  0.44720049  0.00405640     0.87500
C441        C  0.50555483  0.50299152  0.55937908     0.87500
C442        C  0.50259690  0.49786621  0.94254586     0.87700
O443        O  0.46156412  0.49966329  0.70724760    -0.74600
O444        O  0.45961272  0.49785572  0.79522203    -0.74600
O445        O  0.45924069  0.53902564  0.75179566    -0.74700
O446        O  0.46135691  0.45849622  0.75065933    -0.74700
O447        O  0.03620906  0.45921103  0.74908878    -0.74700
O448        O  0.03399384  0.53998143  0.75316349    -0.74700
O449        O  0.03431718  0.49758134  0.79510358    -0.74600
O450        O  0.03616771  0.50152185  0.70720718    -0.74700
Ni451      Ni  0.45779785  0.49873188  0.75123731     1.25400
Ni452      Ni  0.03786898  0.49961124  0.75116191     1.25400
C453        C  0.99914809  0.50074135  0.69264875     0.87600
C454        C  0.99668550  0.49749509  0.80970678     0.87500
C455        C  0.49615524  0.55275965  0.75274136     0.87500
C456        C  0.49902476  0.44564080  0.74939483     0.87700
C457        C  0.46493213  0.50933481  0.89362063    -0.09300
C458        C  0.50103784  0.49652272  0.90862911     0.06900
C459        C  0.03456883  0.48305621  0.89085230    -0.03100
C460        C  0.03221328  0.48355224  0.85877015    -0.07600
C461        C  0.99654472  0.49686322  0.84372347     0.06000
C462        C  0.46236316  0.50965344  0.86157308    -0.02600
Br463      Br  0.41273799  0.52958407  0.84403635    -0.02300
H464        H  0.43892629  0.51981679  0.90688858     0.09900
H465        H  0.05825649  0.47312007  0.84549076     0.07900
Br466      Br  0.08286532  0.46211301  0.90873513    -0.02700
C467        C  0.46806189  0.49084415  0.60887148    -0.09300
C468        C  0.50510682  0.50300186  0.59345776     0.06900
C469        C  0.04008173  0.51445686  0.61101415    -0.03100
C470        C  0.03733774  0.51343799  0.64317143    -0.07600
C471        C  0.00019225  0.50126543  0.65855779     0.06000
C472        C  0.46535918  0.48970581  0.64091917    -0.02600
Br473      Br  0.41428720  0.47041017  0.65851992    -0.02300
H474        H  0.44113983  0.48156797  0.59587214     0.09900
H475        H  0.06427098  0.52262555  0.65623103     0.07900
Br476      Br  0.09126055  0.53316134  0.59290115    -0.02700
C477        C  0.02002984  0.40176400  0.72233856    -0.09300
C478        C  0.49932795  0.41472267  0.74767460     0.06900
C479        C  0.47752765  0.39799930  0.77020062    -0.03100
C480        C  0.47654904  0.36870170  0.76706307    -0.07600
C481        C  0.49702017  0.35566522  0.74162858     0.06000
C482        C  0.01867945  0.37247150  0.71901130    -0.02600
Br483      Br  0.04424602  0.35667952  0.68223618    -0.02300
H484        H  0.03619657  0.41454651  0.70464474     0.09900
H485        H  0.46024993  0.35599074  0.78475715     0.07900
Br486      Br  0.45073490  0.41412677  0.80638771    -0.02700
C487        C  0.48130854  0.37176024  0.52864984    -0.09300
C488        C  0.00587661  0.35680897  0.00633095     0.06900
C489        C  0.02907390  0.37189220  0.98296338    -0.03100
C490        C  0.02871874  0.40135970  0.98296150    -0.07600
C491        C  0.00429303  0.41622012  0.00533656     0.06000
C492        C  0.48012202  0.40121747  0.52819850    -0.02600
Br493      Br  0.44698046  0.41993261  0.56021504    -0.02300
H494        H  0.46332326  0.36045189  0.54671980     0.09900
H495        H  0.04659497  0.41274350  0.96489215     0.07900
Br496      Br  0.05870023  0.35347034  0.94917791    -0.02700
C497        C  0.46768764  0.62892295  0.73497861    -0.09300
C498        C  0.99156473  0.64313149  0.75776311     0.06900
C499        C  0.01698229  0.62726375  0.77887414    -0.03100
C500        C  0.01891364  0.59788991  0.77641184    -0.07600
C501        C  0.49489098  0.58378676  0.75370202     0.06000
C502        C  0.46902035  0.59953573  0.73288568    -0.02600
Br503      Br  0.43692244  0.58209215  0.70011941    -0.02300
H504        H  0.44834655  0.64079057  0.71844810     0.09900
H505        H  0.03820132  0.58592285  0.79289326     0.07900
Br506      Br  0.04690980  0.64424201  0.81289598    -0.02700
C507        C  0.47750636  0.63132320  0.51115082    -0.09300
C508        C  0.00575284  0.64466436  0.48936576     0.06900
C509        C  0.03324433  0.62790695  0.97013746    -0.03100
C510        C  0.03291326  0.59855024  0.97359946    -0.07600
C511        C  0.00457598  0.58532042  0.49535467     0.06000
C512        C  0.47649168  0.60198171  0.51413550    -0.02600
Br513      Br  0.43805815  0.58599198  0.54550124    -0.02300
H514        H  0.45655326  0.64384298  0.52632597     0.09900
H515        H  0.05402578  0.58592176  0.95863118     0.07900
Br516      Br  0.06934095  0.64360829  0.93731555    -0.02700
C517        C  0.12316212  0.76936097  0.73541667    -0.09300
C518        C  0.15269412  0.76554692  0.75995098     0.06900
C519        C  0.14032932  0.74724717  0.78431902    -0.03100
C520        C  0.09957086  0.73264132  0.78343529    -0.07600
C521        C  0.07034265  0.73616676  0.75870871     0.06000
C522        C  0.08232574  0.75480677  0.73458305    -0.02600
Br523      Br  0.04551181  0.75973658  0.69912653    -0.02300
H524        H  0.13243255  0.78322012  0.71645700     0.09900
H525        H  0.09043848  0.71859188  0.80226002     0.07900
Br526      Br  0.17684221  0.74246887  0.81995012    -0.02700
C527        C  0.34928980  0.76549922  0.78255225    -0.09300
C528        C  0.32040540  0.76197727  0.75769957     0.06900
C529        C  0.33249278  0.74323618  0.73401500    -0.03100
C530        C  0.37327213  0.72869736  0.73530509    -0.07600
C531        C  0.40252387  0.73256763  0.75993485     0.06000
C532        C  0.38989617  0.75084087  0.78395175    -0.02600
Br533      Br  0.42579867  0.75543751  0.81984165    -0.02300
H534        H  0.33997597  0.77955389  0.80109072     0.09900
H535        H  0.38266685  0.71476740  0.71667547     0.07900
Br536      Br  0.29569368  0.73802036  0.69867136    -0.02700
C537        C  0.10132028  0.75535621  0.96859273    -0.09300
C538        C  0.09025618  0.73600936  0.49207455     0.06900
C539        C  0.12052976  0.73178054  0.51630870    -0.03100
C540        C  0.16131910  0.74642927  0.51638285    -0.07600
C541        C  0.17239380  0.76567095  0.99282285     0.06000
C542        C  0.14199187  0.77009066  0.96876044    -0.02600
Br543      Br  0.15545083  0.79488056  0.93479371    -0.02300
H544        H  0.07849334  0.75866389  0.94975578     0.09900
H545        H  0.18422729  0.74314422  0.53517780     0.07900
Br546      Br  0.10673665  0.70759761  0.55074590    -0.02700
C547        C  0.36910737  0.76582717  0.51631937    -0.09300
C548        C  0.34016421  0.76497692  0.99121430     0.06900
C549        C  0.35269945  0.74940076  0.96498103    -0.03100
C550        C  0.39367647  0.73499036  0.96426907    -0.07600
C551        C  0.42267934  0.73596989  0.48936600     0.06000
C552        C  0.40991741  0.75134050  0.51566557    -0.02600
Br553      Br  0.44588271  0.75186683  0.55190241    -0.02300
H554        H  0.35956519  0.77748862  0.53670777     0.09900
H555        H  0.40319826  0.72323223  0.94394579     0.07900
Br556      Br  0.31604410  0.74827906  0.92909981    -0.02700
C557        C  0.33667530  0.25498292  0.72058439    -0.09300
C558        C  0.32815316  0.23600658  0.74491104     0.06900
C559        C  0.36115112  0.23207154  0.76746592    -0.03100
C560        C  0.40205493  0.24648717  0.76493405    -0.07600
C561        C  0.41062087  0.26529980  0.74048323     0.06000
C562        C  0.37734024  0.26962021  0.71824834    -0.02600
Br563      Br  0.38641066  0.29412764  0.68339229    -0.02300
H564        H  0.31182648  0.25804717  0.70294525     0.09900
H565        H  0.42704004  0.24340980  0.78247899     0.07900
Br566      Br  0.35118871  0.20874618  0.80316504    -0.02700
C567        C  0.09152853  0.24754225  0.71424405    -0.09300
C568        C  0.07849845  0.26401765  0.73949279     0.06900
C569        C  0.10695162  0.26579688  0.76499670    -0.03100
C570        C  0.14774799  0.25131218  0.76488896    -0.07600
C571        C  0.16083677  0.23483480  0.73968355     0.06000
C572        C  0.13251615  0.23313413  0.71409067    -0.02600
Br573      Br  0.14961169  0.21281410  0.67779393    -0.02300
H574        H  0.07014706  0.24634698  0.69436918     0.09900
H575        H  0.16915926  0.25262254  0.78474324     0.07900
Br576      Br  0.09073914  0.28678725  0.80103709    -0.02700
C577        C  0.41575479  0.24565343  0.98799336    -0.09300
C578        C  0.42308768  0.26528341  0.01137078     0.06900
C579        C  0.38919705  0.26983746  0.53371367    -0.03100
C580        C  0.34883607  0.25488848  0.53228177    -0.07600
C581        C  0.34143778  0.23528919  0.50885475     0.06000
C582        C  0.37528526  0.23084959  0.98642941    -0.02600
Br583      Br  0.36701645  0.20640140  0.95199272    -0.02300
H584        H  0.44130277  0.24231244  0.97042960     0.09900
H585        H  0.32321528  0.25835248  0.54976376     0.07900
Br586      Br  0.39696241  0.29518859  0.56742911    -0.02700
C587        C  0.14121892  0.23073292  0.98744940    -0.09300
C588        C  0.17361402  0.23681590  0.50955668     0.06900
C589        C  0.16432467  0.25783562  0.53159068    -0.03100
C590        C  0.12332226  0.27215000  0.53113302    -0.07600
C591        C  0.09084445  0.26585715  0.00917809     0.06000
C592        C  0.10027817  0.24506450  0.98699685    -0.02600
Br593      Br  0.05976354  0.23649248  0.95442718    -0.02300
H594        H  0.14809001  0.21499037  0.97010124     0.09900
H595        H  0.11639545  0.28796616  0.54839345     0.07900
Br596      Br  0.20487471  0.26681668  0.56402361    -0.02700
C597        C  0.21441056  0.12947639  0.76273462    -0.09300
C598        C  0.24549558  0.14380972  0.74366633     0.06900
C599        C  0.27589870  0.12784268  0.72564949    -0.03100
C600        C  0.27579994  0.09841937  0.72791306    -0.07600
C601        C  0.24474334  0.08418831  0.74695189     0.06000
C602        C  0.21342524  0.10001891  0.76424569    -0.02600
Br603      Br  0.16988966  0.08284882  0.79148422    -0.02300
H604        H  0.19094943  0.14127527  0.77685085     0.09900
H605        H  0.29927487  0.08651272  0.71390467     0.07900
Br606      Br  0.31575294  0.14450188  0.69551893    -0.02700
C607        C  0.21876145  0.89999710  0.73090620    -0.09300
C608        C  0.24718521  0.91457094  0.75072441     0.06900
C609        C  0.27383510  0.89914073  0.77136226    -0.03100
C610        C  0.27095485  0.86969369  0.77228384    -0.07600
C611        C  0.24229484  0.85502243  0.75257450     0.06000
C612        C  0.21668179  0.87053358  0.73126001    -0.02600
Br613      Br  0.18088443  0.85283115  0.70050019    -0.02300
H614        H  0.19872708  0.91161131  0.71455142     0.09900
H615        H  0.29078065  0.85819725  0.78884530     0.07900
Br616      Br  0.31258423  0.91717617  0.80011450    -0.02700
C617        C  0.28781691  0.00712917  0.85546801    -0.09300
C618        C  0.24713899  0.00037407  0.84125861     0.06900
C619        C  0.20929631  0.99423667  0.86011175    -0.03100
C620        C  0.21302997  0.99490271  0.89209043    -0.07600
C621        C  0.25378366  0.00152300  0.90628371     0.06000
C622        C  0.29156126  0.00778636  0.88741440    -0.02600
Br623      Br  0.34929073  0.01824110  0.90285771    -0.02300
H624        H  0.31727532  0.01219284  0.84163239     0.09900
H625        H  0.18361744  0.98981187  0.90596024     0.07900
Br626      Br  0.15162460  0.98383688  0.84454259    -0.02700
C627        C  0.21953028  0.01277317  0.60649054    -0.09300
C628        C  0.25532598  0.99923609  0.59133406     0.06900
C629        C  0.28841328  0.98573253  0.60897178    -0.03100
C630        C  0.28510077  0.98604588  0.64105042    -0.07600
C631        C  0.24917270  0.99947990  0.65619050     0.06000
C632        C  0.21627969  0.01316062  0.63853407    -0.02600
Br633      Br  0.16780646  0.03439893  0.65640807    -0.02300
H634        H  0.19416617  0.02360225  0.59330744     0.09900
H635        H  0.31050977  0.97528989  0.65425753     0.07900
Br636      Br  0.33733540  0.96501681  0.59097787    -0.02700
C637        C  0.22950541  0.09836609  0.52425306    -0.09300
C638        C  0.25576111  0.08520701  0.50151865     0.06900
C639        C  0.28234209  0.10194000  0.98149391    -0.03100
C640        C  0.28183469  0.13129463  0.98421543    -0.07600
C641        C  0.25568308  0.14455083  0.50701298     0.06000
C642        C  0.22982786  0.12770445  0.52749019    -0.02600
Br643      Br  0.19740655  0.14322963  0.56185127    -0.02300
H644        H  0.20975751  0.08567301  0.54024385     0.09900
H645        H  0.30171065  0.14388487  0.96820685     0.07900
Br646      Br  0.31821983  0.08598188  0.94906819    -0.02700
C647        C  0.23481899  0.90081581  0.52143528    -0.09300
C648        C  0.25689663  0.91579594  0.99776862     0.06900
C649        C  0.27968470  0.90087288  0.97445480    -0.03100
C650        C  0.27980349  0.87139403  0.97498074    -0.07600
C651        C  0.25758180  0.85632025  0.99857110     0.06000
C652        C  0.23542557  0.87131236  0.52220473    -0.02600
Br653      Br  0.20801279  0.85264529  0.55699267    -0.02300
H654        H  0.21789167  0.91213703  0.53976166     0.09900
H655        H  0.29663905  0.86015579  0.95655671     0.07900
Br656      Br  0.30871126  0.91974472  0.94041120    -0.02700
O657        O  0.79359128  0.99974136  0.04243492    -0.74600
O658        O  0.79265592  0.00132701  0.45434226    -0.74600
O659        O  0.79324113  0.04094615  0.99885015    -0.74700
O660        O  0.79373779  0.96025214  0.49759626    -0.74700
O661        O  0.71890022  0.95989976  0.99921511    -0.74700
O662        O  0.71843637  0.04078138  0.50036820    -0.74700
O663        O  0.71808571  0.00113121  0.45570791    -0.74600
O664        O  0.71884370  0.99959913  0.04332978    -0.74700
Ni665      Ni  0.79599439  0.00058695  0.99828410     1.25400
Ni666      Ni  0.71592608  0.00034230  0.49963786     1.25400
C667        C  0.75621964  0.99935960  0.05738729     0.87600
C668        C  0.75512954  0.00146036  0.44041440     0.87500
C669        C  0.75582694  0.05414601  0.99991956     0.87500
C670        C  0.75646560  0.94682634  0.49813646     0.87700
O671        O  0.71010704  0.99913746  0.20469221    -0.74600
O672        O  0.70904283  0.99918520  0.29280877    -0.74600
O673        O  0.70836926  0.03937804  0.24844530    -0.74700
O674        O  0.70991094  0.95876610  0.24902335    -0.74700
O675        O  0.78468021  0.95919117  0.24964430    -0.74700
O676        O  0.78311829  0.04008245  0.24727776    -0.74700
O677        O  0.78358948  0.00031015  0.29220301    -0.74600
O678        O  0.78483667  0.99900896  0.20460323    -0.74700
Ni679      Ni  0.70667937  0.99906833  0.24874779     1.25400
Ni680      Ni  0.78670555  0.99966161  0.24840815     1.25400
C681        C  0.74778298  0.99927907  0.19013659     0.87600
C682        C  0.74626534  0.99984633  0.30712224     0.87500
C683        C  0.74539832  0.05304291  0.24777598     0.87500
C684        C  0.74741169  0.94568881  0.24981844     0.87700
C685        C  0.75611157  0.17581200  0.00869592     0.02900
C686        C  0.71588958  0.19121527  0.00852563    -0.13200
C687        C  0.71638654  0.22082402  0.00918528     0.00400
C688        C  0.75771961  0.23500649  0.00841756    -0.11700
C689        C  0.79817158  0.21995667  0.00837533     0.02900
C690        C  0.79711570  0.19039839  0.00893416    -0.11200
H691        H  0.68411367  0.18015471  0.00782969     0.08500
H692        H  0.75847670  0.25782831  0.00758150     0.06100
H693        H  0.82829416  0.17871172  0.00960189     0.05900
C694        C  0.74527997  0.17518320  0.24311646     0.02900
C695        C  0.70458816  0.18994133  0.24079875    -0.13200
C696        C  0.70392363  0.21949817  0.24086403     0.00400
C697        C  0.74432601  0.23444938  0.24307285    -0.11700
C698        C  0.78527828  0.22009913  0.24541831     0.02900
C699        C  0.78536700  0.19051536  0.24595278    -0.11200
H700        H  0.67329910  0.17846232  0.23900428     0.08500
H701        H  0.74389670  0.25728867  0.24279161     0.06100
H702        H  0.81686350  0.17943289  0.24822993     0.05900
C703        C  0.75711386  0.82511531  0.49745905     0.02900
C704        C  0.79754400  0.81004234  0.49560822    -0.13200
C705        C  0.79730297  0.78058565  0.49295457     0.00400
C706        C  0.75622210  0.76612210  0.49250973    -0.11700
C707        C  0.71559148  0.78097735  0.49389882     0.02900
C708        C  0.71625659  0.81043531  0.49644166    -0.11200
H709        H  0.82922893  0.82125143  0.49603438     0.08500
H710        H  0.75588120  0.74335102  0.49076804     0.06100
H711        H  0.68491030  0.82195914  0.49731271     0.05900
C712        C  0.74007534  0.82374604  0.25465715     0.02900
C713        C  0.77978325  0.80782897  0.25499311    -0.13200
C714        C  0.77823926  0.77832522  0.25691567     0.00400
C715        C  0.73659509  0.76460575  0.25874672    -0.13700
C716        C  0.69661209  0.78018569  0.25905827     0.02900
C717        C  0.69858595  0.80971201  0.25723279    -0.11200
H718        H  0.81201633  0.81835980  0.25329869     0.08500
H719        H  0.73532227  0.74179890  0.25995827     0.06100
H720        H  0.66773624  0.82173646  0.25806447     0.05900
C721        C  0.50630330  0.67593579  0.98783450     0.02900
C722        C  0.96578933  0.69100123  0.98681393    -0.13200
C723        C  0.96568739  0.72051098  0.98804059     0.00400
C724        C  0.50655263  0.73513199  0.98928676    -0.11700
C725        C  0.54727696  0.72041220  0.99053381     0.02900
C726        C  0.54688379  0.69084253  0.98992461    -0.11200
H727        H  0.93419116  0.67974264  0.98584629     0.08500
H728        H  0.50656684  0.75795821  0.99000574     0.06100
H729        H  0.57822975  0.67944225  0.99146848     0.05900
C730        C  0.48975760  0.67436855  0.25871070     0.02900
C731        C  0.52949349  0.69029477  0.25807240    -0.13200
C732        C  0.52806221  0.71981882  0.25845563     0.00400
C733        C  0.48642157  0.73352960  0.25934447    -0.11700
C734        C  0.94635878  0.71792762  0.25970371     0.02900
C735        C  0.94823761  0.68837685  0.25906729    -0.11200
H736        H  0.56166517  0.67972679  0.25687249     0.08500
H737        H  0.48519558  0.75634905  0.25969040     0.06100
H738        H  0.91736218  0.67628927  0.25930431     0.05900
C739        C  0.00644519  0.32562548  0.50788590     0.02900
C740        C  0.54721498  0.31085972  0.50864824    -0.13200
C741        C  0.54765482  0.28129204  0.50976775     0.00400
C742        C  0.00682430  0.26657629  0.51166607    -0.11700
C743        C  0.96587746  0.28108989  0.51136592     0.02900
C744        C  0.96592725  0.31058086  0.50919521    -0.11200
H745        H  0.57863558  0.32237032  0.50797379     0.08500
H746        H  0.00687762  0.24377874  0.51332037     0.06100
H747        H  0.93437300  0.32182744  0.50804520     0.05900
C748        C  0.49609509  0.32457864  0.23959581     0.02900
C749        C  0.53630250  0.30931072  0.23893032    -0.13200
C750        C  0.53579827  0.27977809  0.23862219     0.00400
C751        C  0.49460544  0.26543836  0.23835709    -0.11700
C752        C  0.95404003  0.28049425  0.23907908     0.02900
C753        C  0.95507239  0.31005411  0.24009521    -0.11200
H754        H  0.56809000  0.32040877  0.23932700     0.08500
H755        H  0.49411505  0.24260418  0.23815281     0.06100
H756        H  0.92393171  0.32176607  0.24146714     0.05900
O757        O  0.96707188  0.54102552  0.49935083    -0.74600
O758        O  0.96680532  0.46044138  0.00433518    -0.74600
O759        O  0.96798099  0.50260889  0.04551317    -0.74700
O760        O  0.96569132  0.49873311  0.45794340    -0.74700
O761        O  0.54040920  0.49874897  0.45611318    -0.74700
O762        O  0.54267274  0.50249825  0.04413934    -0.74700
O763        O  0.54163580  0.46040030  0.50220890    -0.74600
O764        O  0.54186208  0.54102477  0.99749873    -0.74700
Ni765      Ni  0.96426168  0.50073047  0.50183182     1.25400
Ni766      Ni  0.54435109  0.50069699  0.49997496     1.25400
C767        C  0.50447511  0.55429006  0.99764908     0.87600
C768        C  0.50420090  0.44719946  0.50405597     0.87500
C769        C  0.00555299  0.50299332  0.05937871     0.87500
C770        C  0.00259801  0.49786605  0.44254604     0.87700
O771        O  0.96156176  0.49966604  0.20724753    -0.74600
O772        O  0.95961168  0.49785754  0.29522201    -0.74600
O773        O  0.95923969  0.53902796  0.25179609    -0.74700
O774        O  0.96135443  0.45849853  0.25065879    -0.74700
O775        O  0.53620678  0.45921292  0.24908804    -0.74700
O776        O  0.53399288  0.53998331  0.25316325    -0.74700
O777        O  0.53431620  0.49758305  0.29510309    -0.74600
O778        O  0.53616548  0.50152397  0.20720672    -0.74700
Ni779      Ni  0.95779613  0.49873421  0.25123728     1.25400
Ni780      Ni  0.53786737  0.49961311  0.25116141     1.25400
C781        C  0.49914567  0.50074384  0.19264852     0.87600
C782        C  0.49668476  0.49749678  0.30970663     0.87500
C783        C  0.99615452  0.55276170  0.25274145     0.87500
C784        C  0.99902205  0.44564286  0.24939401     0.87700
C785        C  0.96493019  0.50933245  0.39362120    -0.09300
C786        C  0.00103882  0.49652307  0.40862915     0.06900
C787        C  0.53457238  0.48305976  0.39085171    -0.03100
C788        C  0.53221609  0.48355613  0.35876958    -0.07600
C789        C  0.49654462  0.49686455  0.34372342     0.06000
C790        C  0.96236065  0.50965158  0.36157366    -0.02600
Br791      Br  0.91273103  0.52957876  0.34403817    -0.02300
H792        H  0.93892233  0.51981203  0.40688958     0.09900
H793        H  0.55826124  0.47312625  0.34548980     0.07900
Br794      Br  0.58287424  0.46212053  0.40873325    -0.02700
C795        C  0.96805884  0.49084728  0.10887110    -0.09300
C796        C  0.00510455  0.50300408  0.09345740     0.06900
C797        C  0.54007994  0.51445855  0.11101387    -0.03100
C798        C  0.53733575  0.51343984  0.14317115    -0.07600
C799        C  0.50018955  0.50126812  0.15855752     0.06000
C800        C  0.96535573  0.48970931  0.14091880    -0.02600
Br801      Br  0.91428210  0.47041535  0.15851951    -0.02300
H802        H  0.94113638  0.48157156  0.09587174     0.09900
H803        H  0.56426945  0.52262687  0.15623074     0.07900
Br804      Br  0.59125961  0.53316215  0.09290094    -0.02700
C805        C  0.52002758  0.40176618  0.22233774    -0.09300
C806        C  0.99932477  0.41472473  0.24767351     0.06900
C807        C  0.97752359  0.39800131  0.27019910    -0.03100
C808        C  0.97654496  0.36870373  0.26706138    -0.07600
C809        C  0.99701673  0.35566730  0.24162710     0.06000
C810        C  0.51867705  0.37247371  0.21901019    -0.02600
Br811      Br  0.54424438  0.35668198  0.18223520    -0.02300
H812        H  0.53619496  0.41454876  0.20464425     0.09900
H813        H  0.96024529  0.35599273  0.28475520     0.07900
Br814      Br  0.95072958  0.41412863  0.30638584    -0.02700
C815        C  0.98130563  0.37176164  0.02865142    -0.09300
C816        C  0.50587804  0.35680797  0.50632830     0.06900
C817        C  0.52907437  0.37189159  0.48296060    -0.03100
C818        C  0.52871967  0.40135909  0.48295954    -0.07600
C819        C  0.50429539  0.41621910  0.50533563     0.06000
C820        C  0.98011855  0.40121886  0.02819918    -0.02600
Br821      Br  0.94697466  0.41993452  0.06021425    -0.02300
H822        H  0.96331956  0.36045361  0.04672126     0.09900
H823        H  0.54659499  0.41274321  0.46489002     0.07900
Br824      Br  0.55869865  0.35347029  0.44917393    -0.02700
C825        C  0.96768764  0.62892527  0.23497961    -0.09300
C826        C  0.49156546  0.64313357  0.25776389     0.06900
C827        C  0.51698338  0.62726558  0.27887449    -0.03100
C828        C  0.51891425  0.59789173  0.27641197    -0.07600
C829        C  0.99489086  0.58378880  0.25370228     0.06000
C830        C  0.96901978  0.59953806  0.23288646    -0.02600
Br831      Br  0.93692040  0.58209488  0.20012062    -0.02300
H832        H  0.94834610  0.64079308  0.21844951     0.09900
H833        H  0.53820226  0.58592448  0.29289302     0.07900
Br834      Br  0.54691201  0.64424343  0.31289612    -0.02700
C835        C  0.97750735  0.63132466  0.01114805    -0.09300
C836        C  0.50575443  0.64466534  0.98936276     0.06900
C837        C  0.53324306  0.62790653  0.47013995    -0.03100
C838        C  0.53291259  0.59854977  0.47360142    -0.07600
C839        C  0.50457637  0.58532144  0.99535288     0.06000
C840        C  0.97649220  0.60198320  0.01413330    -0.02600
Br841      Br  0.93805846  0.58599415  0.04549936    -0.02300
H842        H  0.95655440  0.64384481  0.02632290     0.09900
H843        H  0.55402521  0.58592167  0.45863283     0.07900
Br844      Br  0.56933889  0.64360865  0.43731808    -0.02700
C845        C  0.62316328  0.76936261  0.23541763    -0.09300
C846        C  0.65269487  0.76554906  0.25995226     0.06900
C847        C  0.64032967  0.74724981  0.28432066    -0.03100
C848        C  0.59957121  0.73264395  0.28343699    -0.07600
C849        C  0.57034341  0.73616889  0.25871011     0.06000
C850        C  0.58232689  0.75480840  0.23458409    -0.02600
Br851      Br  0.54551340  0.75973759  0.19912726    -0.02300
H852        H  0.63243403  0.78322135  0.21645769     0.09900
H853        H  0.59043852  0.71859487  0.30226199     0.07900
Br854      Br  0.67684205  0.74247220  0.31995212    -0.02700
C855        C  0.84929021  0.76550070  0.28255398    -0.09300
C856        C  0.82040608  0.76197892  0.25770112     0.06900
C857        C  0.83249375  0.74323804  0.23401643    -0.03100
C858        C  0.87327320  0.72869936  0.23530648    -0.07600
C859        C  0.90252469  0.73256947  0.25993641     0.06000
C860        C  0.88989660  0.75084238  0.28395351    -0.02600
Br861      Br  0.92579869  0.75543856  0.31984367    -0.02300
H862        H  0.83997614  0.77955521  0.30109255     0.09900
H863        H  0.88266818  0.71476960  0.21667673     0.07900
Br864      Br  0.79569484  0.73802224  0.19867271    -0.02700
C865        C  0.60131690  0.75535519  0.46859568    -0.09300
C866        C  0.59025951  0.73600991  0.99207111     0.06900
C867        C  0.62053291  0.73178069  0.01630533    -0.03100
C868        C  0.66132214  0.74642958  0.01638006    -0.07600
C869        C  0.67239060  0.76567030  0.49282532     0.06000
C870        C  0.64198856  0.77008956  0.46876289    -0.02600
Br871      Br  0.65544745  0.79487868  0.43479549    -0.02300
H872        H  0.57848987  0.75866243  0.44975868     0.09900
H873        H  0.68423013  0.74314424  0.03517507     0.07900
Br874      Br  0.60673962  0.70759716  0.05074200    -0.02700
C875        C  0.86911090  0.76582836  0.01631641    -0.09300
C876        C  0.84016089  0.76497513  0.49121735     0.06900
C877        C  0.85269606  0.74939801  0.46498475    -0.03100
C878        C  0.89367318  0.73498778  0.46427330    -0.07600
C879        C  0.92268255  0.73597156  0.98936203     0.06000
C880        C  0.90992094  0.75134166  0.01566202    -0.02600
Br881      Br  0.94588679  0.75186724  0.05189865    -0.02300
H882        H  0.85956890  0.77748929  0.03670520     0.09900
H883        H  0.90319504  0.72322904  0.44395045     0.07900
Br884      Br  0.81604054  0.74827467  0.42910370    -0.02700
C885        C  0.83667229  0.25498446  0.22058309    -0.09300
C886        C  0.82814992  0.23600870  0.24491025     0.06900
C887        C  0.86114770  0.23207417  0.26746537    -0.03100
C888        C  0.90205154  0.24648972  0.26493325    -0.07600
C889        C  0.91061771  0.26530178  0.24048196     0.06000
C890        C  0.87733729  0.26962168  0.21824680    -0.02600
Br891      Br  0.88640816  0.29412840  0.18339022    -0.02300
H892        H  0.81182361  0.25804830  0.20294378     0.09900
H893        H  0.92703652  0.24341275  0.28247838     0.07900
Br894      Br  0.85118492  0.20874966  0.30316511    -0.02700
C895        C  0.59152516  0.24754353  0.21424352    -0.09300
C896        C  0.57849536  0.26401955  0.23949185     0.06900
C897        C  0.60694865  0.26579914  0.26499568    -0.03100
C898        C  0.64774491  0.25131430  0.26488818    -0.07600
C899        C  0.66083345  0.23483637  0.23968314     0.06000
C900        C  0.63251264  0.23313525  0.21409039    -0.02600
Br901      Br  0.64960792  0.21281452  0.17779405    -0.02300
H902        H  0.57014359  0.24634793  0.19436871     0.09900
H903        H  0.66915632  0.25262500  0.28474238     0.07900
Br904      Br  0.59073645  0.28679016  0.30103567    -0.02700
C905        C  0.91575613  0.24565226  0.48798956    -0.09300
C906        C  0.92308896  0.26528243  0.51136683     0.06900
C907        C  0.88919620  0.26983831  0.03371801    -0.03100
C908        C  0.84883526  0.25488927  0.03228620    -0.07600
C909        C  0.84143663  0.23529026  0.00885893     0.06000
C910        C  0.87528660  0.23084841  0.48642569    -0.02600
Br911      Br  0.86701811  0.20639954  0.45198954    -0.02300
H912        H  0.94130417  0.24231106  0.47042591     0.09900
H913        H  0.82321470  0.25835310  0.04976840     0.07900
Br914      Br  0.89696183  0.29518947  0.06743340    -0.02700
C915        C  0.64122002  0.23073171  0.48744430    -0.09300
C916        C  0.67361266  0.23681705  0.00956235     0.06900
C917        C  0.66432289  0.25783640  0.03159668    -0.03100
C918        C  0.62332046  0.27215083  0.03113891    -0.07600
C919        C  0.59084571  0.26585613  0.50917283     0.06000
C920        C  0.60027919  0.24506325  0.48699180    -0.02600
Br921      Br  0.55976422  0.23649084  0.45442244    -0.02300
H922        H  0.64809092  0.21498893  0.47009635     0.09900
H923        H  0.61639333  0.28796677  0.04839951     0.07900
Br924      Br  0.70487235  0.26681686  0.06403014    -0.02700
C925        C  0.71440911  0.12947798  0.26273500    -0.09300
C926        C  0.74549333  0.14381158  0.24366633     0.06900
C927        C  0.77589635  0.12784479  0.22564913    -0.03100
C928        C  0.77579832  0.09842149  0.22791269    -0.07600
C929        C  0.74474255  0.08419016  0.24695190     0.06000
C930        C  0.71342454  0.10002048  0.26424610    -0.02600
Br931      Br  0.66989019  0.08284990  0.29148518    -0.02300
H932        H  0.69094808  0.14127668  0.27685150     0.09900
H933        H  0.79927316  0.08651504  0.21390402     0.07900
Br934      Br  0.81574957  0.14450440  0.19551819    -0.02700
C935        C  0.71876313  0.89999891  0.23090642    -0.09300
C936        C  0.74718701  0.91457280  0.25072451     0.06900
C937        C  0.77383710  0.89914262  0.27136228    -0.03100
C938        C  0.77095668  0.86969559  0.27228404    -0.07600
C939        C  0.74229638  0.85502429  0.25257491     0.06000
C940        C  0.71668340  0.87053538  0.23126035    -0.02600
Br941      Br  0.68088599  0.85283286  0.20050062    -0.02300
H942        H  0.69872867  0.91161307  0.21455166     0.09900
H943        H  0.79078255  0.85819919  0.28884549     0.07900
Br944      Br  0.81258673  0.91717807  0.30011420    -0.02700
C945        C  0.78781789  0.00713121  0.35546805    -0.09300
C946        C  0.74714006  0.00037595  0.34125862     0.06900
C947        C  0.70929746  0.99423824  0.36011174    -0.03100
C948        C  0.71303139  0.99490350  0.39209041    -0.07600
C949        C  0.75378511  0.00152363  0.40628373     0.06000
C950        C  0.79156235  0.00778794  0.38741446    -0.02600
Br951      Br  0.84929123  0.01824367  0.40285795    -0.02300
H952        H  0.81727609  0.01219539  0.34163244     0.09900
H953        H  0.68361900  0.98981226  0.40596018     0.07900
Br954      Br  0.65162530  0.98383933  0.34454260    -0.02700
C955        C  0.71952903  0.01277441  0.10649068    -0.09300
C956        C  0.75532504  0.99923779  0.09133408     0.06900
C957        C  0.78841286  0.98573458  0.10897167    -0.03100
C958        C  0.78510068  0.98604799  0.14105032    -0.07600
C959        C  0.74917238  0.99948163  0.15619053     0.06000
C960        C  0.71627865  0.01316181  0.13853422    -0.02600
Br961      Br  0.66780442  0.03439914  0.15640834    -0.02300
H962        H  0.69416441  0.02360311  0.09330767     0.09900
H963        H  0.81051009  0.97529229  0.15425733     0.07900
Br964      Br  0.83733509  0.96501910  0.09097759    -0.02700
C965        C  0.72950482  0.09836696  0.02425490    -0.09300
C966        C  0.75575802  0.08520838  0.00151881     0.06900
C967        C  0.78234792  0.10193848  0.48149514    -0.03100
C968        C  0.78183969  0.13129316  0.48421569    -0.07600
C969        C  0.75568121  0.14455205  0.00701500     0.06000
C970        C  0.72982784  0.12770524  0.02749289    -0.02600
Br971      Br  0.69741004  0.14322977  0.06185584    -0.02300
H972        H  0.70975862  0.08567352  0.04024636     0.09900
H973        H  0.80171752  0.14388304  0.46820787     0.07900
Br974      Br  0.81823067  0.08597993  0.44907227    -0.02700
C975        C  0.73482055  0.90081673  0.02143564    -0.09300
C976        C  0.75689627  0.91579479  0.49776844     0.06900
C977        C  0.77968443  0.90087131  0.47445501    -0.03100
C978        C  0.77980255  0.87139246  0.47498130    -0.07600
C979        C  0.75758007  0.85631911  0.49857166     0.06000
C980        C  0.73542772  0.87131326  0.02220473    -0.02600
Br981      Br  0.70801605  0.85264563  0.05699269    -0.02300
H982        H  0.71789348  0.91213764  0.03976235     0.09900
H983        H  0.79663822  0.86015390  0.45655758     0.07900
Br984      Br  0.80871214  0.91974255  0.44041147    -0.02700
O985        O  0.79359262  0.99973932  0.54243493    -0.74600
O986        O  0.79265439  0.00132810  0.95434230    -0.74600
O987        O  0.79324346  0.04094451  0.49885062    -0.74700
O988        O  0.79373727  0.96025373  0.99759670    -0.74700
O989        O  0.71890074  0.95989886  0.49921476    -0.74700
O990        O  0.71843403  0.04078236  0.00036801    -0.74700
O991        O  0.71808421  0.00113174  0.95570791    -0.74600
O992        O  0.71884504  0.99959793  0.54332970    -0.74700
Ni993      Ni  0.79599584  0.00058531  0.49828410     1.25400
Ni994      Ni  0.71592464  0.00034320  0.99963791     1.25400
C995        C  0.75622092  0.99935792  0.55738725     0.87600
C996        C  0.75512806  0.00146082  0.94041441     0.87500
C997        C  0.75582957  0.05414471  0.49991986     0.87500
C998        C  0.75646540  0.94682758  0.99813688     0.87700
O999        O  0.71010699  0.99913576  0.70469202    -0.74600
O1000       O  0.70904207  0.99918347  0.79280866    -0.74600
O1001       O  0.70836945  0.03937633  0.74844516    -0.74700
O1002       O  0.70990990  0.95876436  0.74902320    -0.74700
O1003       O  0.78467917  0.95918901  0.74964430    -0.74700
O1004       O  0.78311848  0.04008026  0.74727796    -0.74700
O1005       O  0.78358874  0.00030786  0.79220309    -0.74600
O1006       O  0.78483662  0.99900688  0.70460335    -0.74700
Ni1007     Ni  0.70667893  0.99906663  0.74874763     1.25400
Ni1008     Ni  0.78670512  0.99965941  0.74840827     1.25400
C1009       C  0.74778308  0.99927721  0.69013655     0.87600
C1010       C  0.74626453  0.99984432  0.80712223     0.87500
C1011       C  0.74539873  0.05304097  0.74777601     0.87500
C1012       C  0.74741046  0.94568686  0.74981835     0.87700
C1013       C  0.75611303  0.17581096  0.50869295     0.02900
C1014       C  0.71589099  0.19121419  0.50852126    -0.13200
C1015       C  0.71638789  0.22082298  0.50917994     0.00400
C1016       C  0.75772092  0.23500546  0.50841220    -0.11700
C1017       C  0.79817286  0.21995568  0.50837125     0.02900
C1018       C  0.79711707  0.19039745  0.50893139    -0.11200
H1019       H  0.68411512  0.18015361  0.50782514     0.08500
H1020       H  0.75847803  0.25782727  0.50757535     0.06100
H1021       H  0.82829559  0.17871091  0.50960016     0.05900
C1022       C  0.74528271  0.17518127  0.74311646     0.02900
C1023       C  0.70459108  0.18993957  0.74079869    -0.13200
C1024       C  0.70392677  0.21949638  0.74086438     0.00400
C1025       C  0.74432921  0.23444745  0.74307363    -0.11700
C1026       C  0.78528136  0.22009705  0.74541897     0.02900
C1027       C  0.78536987  0.19051327  0.74595303    -0.11200
H1028       H  0.67330193  0.17846070  0.73900395     0.08500
H1029       H  0.74390003  0.25728674  0.74279279     0.06100
H1030       H  0.81686625  0.17943068  0.74823013     0.05900
C1031       C  0.75711612  0.82511652  0.99745811     0.02900
C1032       C  0.79754653  0.81004384  0.99560669    -0.13200
C1033       C  0.79730599  0.78058720  0.99295236     0.00400
C1034       C  0.75622533  0.76612338  0.99250738    -0.11700
C1035       C  0.71559444  0.78097833  0.99389701     0.02900
C1036       C  0.71625909  0.81043625  0.99644060    -0.11200
H1037       H  0.82923127  0.82125313  0.99603288     0.08500
H1038       H  0.75588483  0.74335235  0.99076506     0.06100
H1039       H  0.68491262  0.82195986  0.99731200     0.05900
C1040       C  0.74007418  0.82374409  0.75465635     0.02900
C1041       C  0.77978221  0.80782713  0.75499203    -0.13200
C1042       C  0.77823843  0.77832336  0.75691427     0.00400
C1043       C  0.73659435  0.76460378  0.75874527    -0.13700
C1044       C  0.69661123  0.78018360  0.75905708     0.02900
C1045       C  0.69858491  0.80970994  0.75723194    -0.11200
H1046       H  0.81201521  0.81835808  0.75329767     0.08500
H1047       H  0.73532170  0.74179691  0.75995661     0.06100
H1048       H  0.66773511  0.82173432  0.75806382     0.05900
C1049       C  0.50630121  0.67593480  0.48783812     0.02900
C1050       C  0.96578689  0.69099995  0.48681795    -0.13200
C1051       C  0.96568441  0.72050967  0.48804496     0.00400
C1052       C  0.50654935  0.73513096  0.48929101    -0.11700
C1053       C  0.54727396  0.72041146  0.49053767     0.02900
C1054       C  0.54688140  0.69084182  0.48992827    -0.11200
H1055       H  0.93418892  0.67974113  0.48585022     0.08500
H1056       H  0.50656316  0.75795717  0.49001002     0.06100
H1057       H  0.57822762  0.67944177  0.49147188     0.05900
C1058       C  0.48975669  0.67436648  0.75870960     0.02900
C1059       C  0.52949259  0.69029264  0.75807120    -0.13200
C1060       C  0.52806140  0.71981668  0.75845417     0.00400
C1061       C  0.48642080  0.73352752  0.75934285    -0.11700
C1062       C  0.94635788  0.71792562  0.75970219     0.02900
C1063       C  0.94823663  0.68837482  0.75906591    -0.11200
H1064       H  0.56166424  0.67972460  0.75687147     0.08500
H1065       H  0.48519487  0.75634696  0.75968861     0.06100
H1066       H  0.91736121  0.67628726  0.75930295     0.05900
C1067       C  0.00644384  0.32562654  0.00788943     0.02900
C1068       C  0.54721367  0.31086080  0.00865273    -0.13200
C1069       C  0.54765354  0.28129313  0.00977281     0.00400
C1070       C  0.00682304  0.26657739  0.01167091    -0.11700
C1071       C  0.96587621  0.28109095  0.01136998     0.02900
C1072       C  0.96592593  0.31058186  0.00919863    -0.11200
H1073       H  0.57863427  0.32237140  0.00797842     0.08500
H1074       H  0.00687637  0.24377986  0.01332556     0.06100
H1075       H  0.93437165  0.32182834  0.00804804     0.05900
C1076       C  0.49609828  0.32457658  0.73959743     0.02900
C1077       C  0.53630566  0.30930868  0.73893167    -0.13200
C1078       C  0.53580138  0.27977607  0.73862336     0.00400
C1079       C  0.49460855  0.26543633  0.73835836    -0.11700
C1080       C  0.95404316  0.28049219  0.73908062     0.02900
C1081       C  0.95507557  0.31005204  0.74009705    -0.11200
H1082       H  0.56809318  0.32040671  0.73932821     0.08500
H1083       H  0.49411818  0.24260216  0.73815388     0.06100
H1084       H  0.92393493  0.32176402  0.74146924     0.05900
O1085       O  0.96707126  0.54102682  0.99934984    -0.74600
O1086       O  0.96680726  0.46044010  0.50433516    -0.74600
O1087       O  0.96798267  0.50260712  0.54551368    -0.74700
O1088       O  0.96569015  0.49873393  0.95794302    -0.74700
O1089       O  0.54040810  0.49874892  0.95611298    -0.74700
O1090       O  0.54267439  0.50249683  0.54413956    -0.74700
O1091       O  0.54163388  0.46040109  0.00220942    -0.74600
O1092       O  0.54186262  0.54102407  0.49749976    -0.74700
Ni1093     Ni  0.96426032  0.50073178  0.00183135     1.25400
Ni1094     Ni  0.54434979  0.50069770  0.99997475     1.25400
C1095       C  0.50447538  0.55428906  0.49765036     0.87600
C1096       C  0.50419878  0.44720049  0.00405642     0.87500
C1097       C  0.00555482  0.50299154  0.55937905     0.87500
C1098       C  0.00259691  0.49786618  0.94254584     0.87700
O1099       O  0.96156411  0.49966334  0.70724758    -0.74600
O1100       O  0.95961267  0.49785568  0.79522199    -0.74600
O1101       O  0.95924073  0.53902565  0.75179566    -0.74700
O1102       O  0.96135682  0.45849622  0.75065926    -0.74700
O1103       O  0.53620915  0.45921107  0.74908879    -0.74700
O1104       O  0.53399381  0.53998147  0.75316352    -0.74700
O1105       O  0.53431723  0.49758137  0.79510360    -0.74600
O1106       O  0.53616772  0.50152189  0.70720718    -0.74700
Ni1107     Ni  0.95779782  0.49873189  0.75123728     1.25400
Ni1108     Ni  0.53786903  0.49961127  0.75116192     1.25400
C1109       C  0.49914810  0.50074134  0.69264877     0.87600
C1110       C  0.49668555  0.49749513  0.80970681     0.87500
C1111       C  0.99615530  0.55275963  0.75274134     0.87500
C1112       C  0.99902465  0.44564078  0.74939479     0.87700
C1113       C  0.96493202  0.50933465  0.89362061    -0.09300
C1114       C  0.00103782  0.49652266  0.90862908     0.06900
C1115       C  0.53456878  0.48305618  0.89085236    -0.03100
C1116       C  0.53221327  0.48355222  0.85877020    -0.07600
C1117       C  0.49654478  0.49686326  0.84372350     0.06000
C1118       C  0.96236307  0.50965334  0.86157307    -0.02600
Br1119     Br  0.91273805  0.52958409  0.84403634    -0.02300
H1120       H  0.93892612  0.51981657  0.90688857     0.09900
H1121       H  0.55825642  0.47311997  0.84549082     0.07900
Br1122     Br  0.58286507  0.46211284  0.90873525    -0.02700
C1123       C  0.96806191  0.49084412  0.60887146    -0.09300
C1124       C  0.00510680  0.50300187  0.59345773     0.06900
C1125       C  0.54008176  0.51445684  0.61101417    -0.03100
C1126       C  0.53733775  0.51343798  0.64317145    -0.07600
C1127       C  0.50019225  0.50126543  0.65855780     0.06000
C1128       C  0.96535921  0.48970579  0.64091915    -0.02600
Br1129     Br  0.91428729  0.47041012  0.65851993    -0.02300
H1130       H  0.94113987  0.48156791  0.59587212     0.09900
H1131       H  0.56427099  0.52262555  0.65623105     0.07900
Br1132     Br  0.59126062  0.53316129  0.59290118    -0.02700
C1133       C  0.52003000  0.40176402  0.72233857    -0.09300
C1134       C  0.99932781  0.41472265  0.74767458     0.06900
C1135       C  0.97752751  0.39799930  0.77020063    -0.03100
C1136       C  0.97654889  0.36870170  0.76706309    -0.07600
C1137       C  0.99701999  0.35566520  0.74162862     0.06000
C1138       C  0.51867963  0.37247153  0.71901129    -0.02600
Br1139     Br  0.54424622  0.35667956  0.68223617    -0.02300
H1140       H  0.53619674  0.41454655  0.70464476     0.09900
H1141       H  0.96024977  0.35599076  0.78475719     0.07900
Br1142     Br  0.95073475  0.41412679  0.80638770    -0.02700
C1143       C  0.98130880  0.37176018  0.52864989    -0.09300
C1144       C  0.50587651  0.35680897  0.00633096     0.06900
C1145       C  0.52907388  0.37189218  0.98296342    -0.03100
C1146       C  0.52871878  0.40135969  0.98296156    -0.07600
C1147       C  0.50429299  0.41622011  0.00533659     0.06000
C1148       C  0.98012222  0.40121742  0.52819852    -0.02600
Br1149     Br  0.94698082  0.41993253  0.56021517    -0.02300
H1150       H  0.96332368  0.36045182  0.54671990     0.09900
H1151       H  0.54659506  0.41274348  0.96489224     0.07900
Br1152     Br  0.55870012  0.35347032  0.94917792    -0.02700
C1153       C  0.96768767  0.62892293  0.73497861    -0.09300
C1154       C  0.49156463  0.64313150  0.75776315     0.06900
C1155       C  0.51698211  0.62726376  0.77887423    -0.03100
C1156       C  0.51891346  0.59788992  0.77641193    -0.07600
C1157       C  0.99489109  0.58378674  0.75370198     0.06000
C1158       C  0.96902043  0.59953571  0.73288566    -0.02600
Br1159     Br  0.93692257  0.58209213  0.70011937    -0.02300
H1160       H  0.94834651  0.64079053  0.71844813     0.09900
H1161       H  0.53820109  0.58592286  0.79289336     0.07900
Br1162     Br  0.54690957  0.64424202  0.81289611    -0.02700
C1163       C  0.97750630  0.63132316  0.51115086    -0.09300
C1164       C  0.50575297  0.64466438  0.48936576     0.06900
C1165       C  0.53324449  0.62790696  0.97013746    -0.03100
C1166       C  0.53291346  0.59855025  0.97359951    -0.07600
C1167       C  0.50457599  0.58532044  0.49535471     0.06000
C1168       C  0.97649171  0.60198166  0.51413552    -0.02600
Br1169     Br  0.93805830  0.58599182  0.54550128    -0.02300
H1170       H  0.95655322  0.64384290  0.52632603     0.09900
H1171       H  0.55402604  0.58592177  0.95863127     0.07900
Br1172     Br  0.56934115  0.64360829  0.93731556    -0.02700
C1173       C  0.62316220  0.76936082  0.73541657    -0.09300
C1174       C  0.65269409  0.76554687  0.75995096     0.06900
C1175       C  0.64032923  0.74724717  0.78431905    -0.03100
C1176       C  0.59957079  0.73264130  0.78343529    -0.07600
C1177       C  0.57034267  0.73616668  0.75870865     0.06000
C1178       C  0.58232584  0.75480660  0.73458294    -0.02600
Br1179     Br  0.54551188  0.75973636  0.69912642    -0.02300
H1180       H  0.63243269  0.78321992  0.71645686     0.09900
H1181       H  0.59043834  0.71859191  0.80226005     0.07900
Br1182     Br  0.67684201  0.74246891  0.81995024    -0.02700
C1183       C  0.84928979  0.76549919  0.78255222    -0.09300
C1184       C  0.82040535  0.76197715  0.75769957     0.06900
C1185       C  0.83249274  0.74323602  0.73401505    -0.03100
C1186       C  0.87327210  0.72869723  0.73530516    -0.07600
C1187       C  0.90252386  0.73256757  0.75993490     0.06000
C1188       C  0.88989616  0.75084084  0.78395175    -0.02600
Br1189     Br  0.92579859  0.75543750  0.81984167    -0.02300
H1190       H  0.83997598  0.77955391  0.80109065     0.09900
H1191       H  0.88266682  0.71476725  0.71667557     0.07900
Br1192     Br  0.79569376  0.73802016  0.69867137    -0.02700
C1193       C  0.60132030  0.75535621  0.96859273    -0.09300
C1194       C  0.59025623  0.73600941  0.49207459     0.06900
C1195       C  0.62052975  0.73178064  0.51630879    -0.03100
C1196       C  0.66131905  0.74642942  0.51638301    -0.07600
C1197       C  0.67239375  0.76567103  0.99282293     0.06000
C1198       C  0.64199185  0.77009069  0.96876048    -0.02600
Br1199     Br  0.65545077  0.79488058  0.93479374    -0.02300
H1200       H  0.57849340  0.75866384  0.94975576     0.09900
H1201       H  0.68422717  0.74314441  0.53517801     0.07900
Br1202     Br  0.60673668  0.70759771  0.55074599    -0.02700
C1203       C  0.86910741  0.76582721  0.51631945    -0.09300
C1204       C  0.84016419  0.76497698  0.99121439     0.06900
C1205       C  0.85269934  0.74940073  0.96498117    -0.03100
C1206       C  0.89367633  0.73499029  0.96426920    -0.07600
C1207       C  0.92267934  0.73596992  0.48936608     0.06000
C1208       C  0.90991747  0.75134055  0.51566564    -0.02600
Br1209     Br  0.94588289  0.75186685  0.55190245    -0.02300
H1210       H  0.85956523  0.77748867  0.53670785     0.09900
H1211       H  0.90319803  0.72323209  0.94394595     0.07900
Br1212     Br  0.81604397  0.74827904  0.92909999    -0.02700
C1213       C  0.83667519  0.25498287  0.72058454    -0.09300
C1214       C  0.82815308  0.23600653  0.74491119     0.06900
C1215       C  0.86115107  0.23207147  0.76746605    -0.03100
C1216       C  0.90205490  0.24648708  0.76493414    -0.07600
C1217       C  0.91062082  0.26529972  0.74048333     0.06000
C1218       C  0.87734014  0.26962015  0.71824847    -0.02600
Br1219     Br  0.88641049  0.29412765  0.68339246    -0.02300
H1220       H  0.81182634  0.25804714  0.70294543     0.09900
H1221       H  0.92704004  0.24340971  0.78247907     0.07900
Br1222     Br  0.85118859  0.20874620  0.80316522    -0.02700
C1223       C  0.59152851  0.24754213  0.71424408    -0.09300
C1224       C  0.57849847  0.26401760  0.73949277     0.06900
C1225       C  0.60695157  0.26579679  0.76499672    -0.03100
C1226       C  0.64774789  0.25131205  0.76488902    -0.07600
C1227       C  0.66083669  0.23483466  0.73968362     0.06000
C1228       C  0.63251607  0.23313397  0.71409074    -0.02600
Br1229     Br  0.64961157  0.21281390  0.67779400    -0.02300
H1230       H  0.57014704  0.24634687  0.69436919     0.09900
H1231       H  0.66915913  0.25262238  0.78474334     0.07900
Br1232     Br  0.59073903  0.28678722  0.80103707    -0.02700
C1233       C  0.91575477  0.24565351  0.98799339    -0.09300
C1234       C  0.92308777  0.26528345  0.01137084     0.06900
C1235       C  0.88919720  0.26983745  0.53371385    -0.03100
C1236       C  0.84883618  0.25488850  0.53228196    -0.07600
C1237       C  0.84143782  0.23528928  0.50885488     0.06000
C1238       C  0.87528520  0.23084970  0.98642947    -0.02600
Br1239     Br  0.86701630  0.20640148  0.95199281    -0.02300
H1240       H  0.94130269  0.24231252  0.97042959     0.09900
H1241       H  0.82321543  0.25835249  0.54976397     0.07900
Br1242     Br  0.89696260  0.29518856  0.56742930    -0.02700
C1243       C  0.64121897  0.23073303  0.98744951    -0.09300
C1244       C  0.67361406  0.23681605  0.50955680     0.06900
C1245       C  0.66432464  0.25783573  0.53159081    -0.03100
C1246       C  0.62332219  0.27215008  0.53113316    -0.07600
C1247       C  0.59084438  0.26585719  0.00917820     0.06000
C1248       C  0.60027818  0.24506457  0.98699696    -0.02600
Br1249     Br  0.55976371  0.23649252  0.95442722    -0.02300
H1250       H  0.64809013  0.21499053  0.97010133     0.09900
H1251       H  0.61639534  0.28796621  0.54839360     0.07900
Br1252     Br  0.70487455  0.26681671  0.56402384    -0.02700
C1253       C  0.71441063  0.12947628  0.76273463    -0.09300
C1254       C  0.74549562  0.14380964  0.74366635     0.06900
C1255       C  0.77589877  0.12784263  0.72564950    -0.03100
C1256       C  0.77580010  0.09841932  0.72791307    -0.07600
C1257       C  0.74474353  0.08418822  0.74695190     0.06000
C1258       C  0.71342538  0.10001880  0.76424570    -0.02600
Br1259     Br  0.66988986  0.08284863  0.79148421    -0.02300
H1260       H  0.69094946  0.14127514  0.77685086     0.09900
H1261       H  0.79927505  0.08651269  0.71390468     0.07900
Br1262     Br  0.81575286  0.14450189  0.69551888    -0.02700
C1263       C  0.71876170  0.89999704  0.73090615    -0.09300
C1264       C  0.74718543  0.91457086  0.75072441     0.06900
C1265       C  0.77383527  0.89914061  0.77136227    -0.03100
C1266       C  0.77095499  0.86969357  0.77228381    -0.07600
C1267       C  0.74229498  0.85502235  0.75257443     0.06000
C1268       C  0.71668201  0.87053351  0.73125992    -0.02600
Br1269     Br  0.68088461  0.85283106  0.70050013    -0.02300
H1270       H  0.69872733  0.91161126  0.71455138     0.09900
H1271       H  0.79078073  0.85819711  0.78884527     0.07900
Br1272     Br  0.81258431  0.91717597  0.80011463    -0.02700
C1273       C  0.78781703  0.00712939  0.85546800    -0.09300
C1274       C  0.74713919  0.00037410  0.84125861     0.06900
C1275       C  0.70929654  0.99423663  0.86011177    -0.03100
C1276       C  0.71303018  0.99490274  0.89209044    -0.07600
C1277       C  0.75378382  0.00152318  0.90628372     0.06000
C1278       C  0.79156137  0.00778666  0.88741439    -0.02600
Br1279     Br  0.84929079  0.01824152  0.90285768    -0.02300
H1280       H  0.81727540  0.01219313  0.84163236     0.09900
H1281       H  0.68361768  0.98981182  0.90596026     0.07900
Br1282     Br  0.65162487  0.98383668  0.84454260    -0.02700
C1283       C  0.71953042  0.01277312  0.60649054    -0.09300
C1284       C  0.75532615  0.99923607  0.59133406     0.06900
C1285       C  0.78841346  0.98573251  0.60897176    -0.03100
C1286       C  0.78510093  0.98604583  0.64105040    -0.07600
C1287       C  0.74917286  0.99947982  0.65619050     0.06000
C1288       C  0.71627982  0.01316052  0.63853408    -0.02600
Br1289     Br  0.66780655  0.03439877  0.65640810    -0.02300
H1290       H  0.69416631  0.02360219  0.59330745     0.09900
H1291       H  0.81050994  0.97528984  0.65425751     0.07900
Br1292     Br  0.83733558  0.96501682  0.59097783    -0.02700
C1293       C  0.72950526  0.09836617  0.52425303    -0.09300
C1294       C  0.75576117  0.08520710  0.50151874     0.06900
C1295       C  0.78234236  0.10194016  0.98149411    -0.03100
C1296       C  0.78183493  0.13129479  0.98421567    -0.07600
C1297       C  0.75568312  0.14455094  0.50701314     0.06000
C1298       C  0.72982774  0.12770453  0.52749024    -0.02600
Br1299     Br  0.69740634  0.14322966  0.56185130    -0.02300
H1300       H  0.70975719  0.08567308  0.54024373     0.09900
H1301       H  0.80171103  0.14388505  0.96820718     0.07900
Br1302     Br  0.81822031  0.08598209  0.94906847    -0.02700
C1303       C  0.73481917  0.90081588  0.52143536    -0.09300
C1304       C  0.75689681  0.91579603  0.99776866     0.06900
C1305       C  0.77968475  0.90087294  0.97445482    -0.03100
C1306       C  0.77980347  0.87139409  0.97498077    -0.07600
C1307       C  0.75758180  0.85632033  0.99857116     0.06000
C1308       C  0.73542576  0.87131242  0.52220481    -0.02600
Br1309     Br  0.70801296  0.85264533  0.55699272    -0.02300
H1310       H  0.71789194  0.91213709  0.53976176     0.09900
H1311       H  0.79663894  0.86015583  0.95655673     0.07900
Br1312     Br  0.80871116  0.91974474  0.94041114    -0.02700
loop_ 
_geom_bond_atom_site_label_1 
_geom_bond_atom_site_label_2 
_geom_bond_distance 
_geom_bond_site_symmetry_2 
_ccdc_geom_bond_type 
O1           Ni9   1.921   1_564  S
O1           C11   1.282       .  A
O2         Ni337   1.916       .  S
O2           C12   1.280       .  A
O3           Ni9   1.918       .  S
O3           C13   1.281       .  A
O4         Ni337   1.916   1_565  S
O4           C14   1.280       .  A
O5         Ni338   1.922   1_565  S
O5          C342   1.282       .  A
O6          Ni10   1.921       .  S
O6          C341   1.282       .  A
O7          Ni10   1.911       .  S
O7           C12   1.281       .  A
O8         Ni338   1.904   1_564  S
O8           C11   1.279       .  A
Ni9         O330   1.916       .  S
Ni9         O332   1.916   1_545  S
Ni9        Ni338   2.387       .  S
Ni10        O333   1.922   1_545  S
Ni10        O336   1.904   1_545  S
Ni10       Ni337   2.387       .  S
C11         C300   1.477       .  S
C12         C293   1.486       .  S
C13         O334   1.282   1_556  A
C13         C310   1.476   1_556  S
C14         O333   1.282       .  A
C14         C320   1.473       .  S
O15         Ni23   1.918       .  S
O15          C25   1.281       .  A
O16         Ni23   1.919       .  S
O16          C26   1.281       .  A
O17         Ni23   1.914   1_545  S
O17          C27   1.280       .  A
O18         Ni23   1.915       .  S
O18          C28   1.280       .  A
O19         Ni24   1.922       .  S
O19          C28   1.282       .  A
O20         Ni24   1.922   1_545  S
O20          C27   1.283       .  A
O21         Ni24   1.907   1_545  S
O21          C26   1.280   1_545  A
O22         Ni24   1.908       .  S
O22          C25   1.279       .  A
Ni23        Ni24   2.386       .  S
C25         C303   1.477       .  S
C26         C290   1.486   1_565  S
C27         C273   1.479       .  S
C28         C280   1.477       .  S
C29         C313   1.486       .  S
C29          C30   1.405       .  A
C29          C34   1.404       .  A
C30          C31   1.406       .  A
C30          H35   1.083       .  S
C31         C260   1.485       .  S
C31          C32   1.403       .  A
C32          C33   1.403       .  A
C32          H36   1.084       .  S
C33         C253   1.481       .  S
C33          C34   1.403       .  A
C34          H37   1.084       .  S
C38         C270   1.489       .  S
C38          C39   1.406       .  A
C38          C43   1.406       .  A
C39          C40   1.403       .  A
C39          H44   1.084       .  S
C40         C243   1.479       .  S
C40          C41   1.402       .  A
C41          C42   1.404       .  A
C41          H45   1.084       .  S
C42         C230   1.484       .  S
C42          C43   1.404       .  A
C43          H46   1.082       .  S
C47         C323   1.482       .  S
C47          C48   1.404       .  A
C47          C52   1.404       .  A
C48          C49   1.404       .  A
C48          H53   1.084       .  S
C49         C220   1.479       .  S
C49          C50   1.404       .  A
C50          C51   1.403       .  A
C50          H54   1.084       .  S
C51         C213   1.479       .  S
C51          C52   1.403       .  A
C52          H55   1.084       .  S
C56         C283   1.488       .  S
C56          C57   1.406       .  A
C56          C61   1.407       .  A
C57          C58   1.403       .  A
C57          H62   1.084       .  S
C58         C200   1.479       .  S
C58          C59   1.402       .  A
C59          C60   1.404       .  A
C59          H63   1.084       .  S
C60         C190   1.481       .  S
C60          C61   1.404       .  A
C61          H64   1.083       .  S
C65         C180   1.485       .  S
C65          C70   1.405       .  A
C65         C722   1.406   1_455  A
C66          C67   1.402       .  A
C66         C721   1.406       .  A
C66          H71   1.084       .  S
C67         C223   1.479       .  S
C67         C724   1.403       .  A
C68          C69   1.403       .  A
C68         C723   1.403   1_455  A
C68          H72   1.084       .  S
C69         C210   1.482       .  S
C69          C70   1.404       .  A
C70          H73   1.083       .  S
C74         C170   1.484       .  S
C74          C75   1.404   1_655  A
C74         C735   1.406       .  A
C75          C76   1.402       .  A
C75          H80   1.084       .  S
C76         C193   1.480       .  S
C76          C77   1.403   1_455  A
C77         C734   1.404       .  A
C77          H81   1.084       .  S
C78         C203   1.481       .  S
C78          C79   1.404       .  A
C78         C733   1.404       .  A
C79         C730   1.406       .  A
C79          H82   1.084       .  S
C83         C816   1.481       .  S
C83          C88   1.403       .  A
C83         C740   1.405       .  A
C84          C85   1.404       .  A
C84         C739   1.405       .  A
C84          H89   1.084       .  S
C85         C263   1.482       .  S
C85         C742   1.404       .  A
C86          C87   1.403       .  A
C86         C741   1.404       .  A
C86          H90   1.084       .  S
C87         C250   1.479       .  S
C87          C88   1.402       .  A
C88          H91   1.084       .  S
C92         C809   1.479       .  S
C92          C93   1.402   1_655  A
C92         C753   1.403       .  A
C93          C94   1.402       .  A
C93          H98   1.084       .  S
C94         C240   1.478       .  S
C94          C95   1.404   1_455  A
C95         C752   1.406       .  A
C95          H99   1.084       .  S
C96         C233   1.481       .  S
C96          C97   1.404       .  A
C96         C751   1.406       .  A
C97         C748   1.403       .  A
C97         H100   1.084       .  S
O101       Ni109   1.916       .  S
O101       C1095   1.281       .  A
O102       Ni437   1.916       .  S
O102       C1096   1.281       .  A
O103       Ni437   1.908       .  S
O103        C113   1.280       .  A
O104       Ni109   1.912       .  S
O104        C114   1.281       .  A
O105       Ni110   1.916       .  S
O105        C770   1.281       .  A
O106       Ni438   1.924   1_554  S
O106        C769   1.282       .  A
O107       Ni110   1.916       .  S
O107        C112   1.280       .  A
O108       Ni438   1.918       .  S
O108        C111   1.281       .  A
Ni109       O430   1.916       .  S
Ni109       O431   1.908       .  S
Ni109      Ni766   2.388       .  S
Ni110       O434   1.924       .  S
Ni110       O436   1.918       .  S
Ni110      Ni765   2.388   1_455  S
C111       O1085   1.281   1_455  A
C111        C183   1.475       .  S
C112       O1086   1.281   1_455  A
C112        C163   1.471       .  S
C113        O762   1.282       .  A
C113        C140   1.482       .  S
C114        O761   1.281       .  A
C114        C130   1.479       .  S
O115       Ni123   1.915       .  S
O115        C781   1.281       .  A
O116       Ni123   1.915       .  S
O116        C782   1.280       .  A
O117       Ni123   1.913       .  S
O117        C127   1.280       .  A
O118       Ni123   1.913       .  S
O118        C128   1.280       .  A
O119       Ni124   1.921       .  S
O119        C784   1.281   1_455  A
O120       Ni124   1.922       .  S
O120        C783   1.282   1_455  A
O121       Ni124   1.915       .  S
O121        C126   1.281   1_455  A
O122       Ni124   1.915       .  S
O122        C125   1.281   1_455  A
Ni123      Ni780   2.388       .  S
Ni124      Ni779   2.388   1_455  S
C125        O771   1.281       .  A
C125        C143   1.483   1_655  S
C126        O772   1.280       .  A
C126        C133   1.480       .  S
C127        O776   1.282       .  A
C127        C173   1.474       .  S
C128        O775   1.281       .  A
C128        C150   1.470       .  S
C129        C130   1.404       .  A
C129        C134   1.397       .  A
C129        H136   1.084       .  S
C130        C787   1.412       .  A
C131        C132   1.398       .  A
C131        C786   1.412       .  A
C131       Br138   1.922       .  S
C132        C133   1.405   1_455  A
C132        H137   1.084       .  S
C133        C790   1.413       .  A
C134        C789   1.413       .  A
C134       Br135   1.922       .  S
C139        C140   1.405       .  A
C139        C144   1.396       .  A
C139        H146   1.083       .  S
C140        C797   1.412       .  A
C141        C142   1.401       .  A
C141        C796   1.412       .  A
C141       Br148   1.921       .  S
C142        C143   1.407       .  A
C142        H147   1.083       .  S
C143        C800   1.413   1_455  A
C144        C799   1.413       .  A
C144       Br145   1.922       .  S
C149        C154   1.399       .  A
C149        C806   1.402   1_455  A
C149        H156   1.084       .  S
C150        C151   1.408       .  A
C150        C805   1.402       .  A
C151        C152   1.398       .  A
C151       Br158   1.920       .  S
C152        C153   1.404       .  A
C152        H157   1.084       .  S
C153        C748   1.479       .  S
C153        C810   1.411       .  A
C154        C809   1.411   1_455  A
C154       Br155   1.920       .  S
C159        C164   1.399       .  A
C159       C1144   1.405       .  A
C159        H166   1.084       .  S
C160        C739   1.481       .  S
C160        C161   1.411       .  A
C160       C1143   1.405   1_455  A
C161        C162   1.399       .  A
C161       Br168   1.920       .  S
C162        C163   1.402       .  A
C162        H167   1.084       .  S
C163       C1148   1.408   1_455  A
C164       C1147   1.408       .  A
C164       Br165   1.920       .  S
C169        C174   1.399       .  A
C169        C826   1.405       .  A
C169        H176   1.084       .  S
C170        C171   1.413   1_655  A
C170        C825   1.405       .  A
C171        C172   1.400       .  A
C171       Br178   1.921       .  S
C172        C829   1.402   1_455  A
C172        H177   1.084       .  S
C173        C174   1.409       .  A
C173        C828   1.402       .  A
C174       Br175   1.920       .  S
C179        C184   1.398       .  A
C179        C836   1.405   1_554  A
C179        H186   1.083       .  S
C180        C835   1.405   1_456  A
C180        C509   1.413       .  A
C181        C182   1.400       .  A
C181        C508   1.413       .  A
C181       Br188   1.921       .  S
C182        C511   1.404       .  A
C182        H187   1.084       .  S
C183        C510   1.404       .  A
C183        C840   1.409   1_456  A
C184        C839   1.409   1_554  A
C184       Br185   1.920       .  S
C189        C190   1.404       .  A
C189        C194   1.400       .  A
C189        H196   1.084       .  S
C190        C191   1.410       .  A
C191        C192   1.399       .  A
C191       Br198   1.919       .  S
C192        C193   1.403       .  A
C192        H197   1.084       .  S
C193        C194   1.409       .  A
C194       Br195   1.919       .  S
C199        C200   1.403       .  A
C199        C204   1.399       .  A
C199        H206   1.084       .  S
C200        C201   1.409       .  A
C201        C202   1.401       .  A
C201       Br208   1.919       .  S
C202        C203   1.404       .  A
C202        H207   1.084       .  S
C203        C204   1.410       .  A
C204       Br205   1.919       .  S
C209        C214   1.399       .  A
C209        C538   1.404       .  A
C209        H216   1.084       .  S
C210        C211   1.411   1_556  A
C210        C537   1.404       .  A
C211        C212   1.400       .  A
C211       Br218   1.920       .  S
C212        C541   1.403   1_554  A
C212        H217   1.084       .  S
C213        C214   1.409       .  A
C213        C540   1.403       .  A
C214       Br215   1.920       .  S
C219        C224   1.398       .  A
C219        C548   1.402   1_554  A
C219        H226   1.084       .  S
C220        C221   1.410       .  A
C220        C547   1.402       .  A
C221        C222   1.401       .  A
C221       Br228   1.919       .  S
C222        C551   1.404       .  A
C222        H227   1.084       .  S
C223        C224   1.409   1_556  A
C223        C550   1.404       .  A
C224       Br225   1.920       .  S
C229        C230   1.405       .  A
C229        C234   1.399       .  A
C229        H236   1.084       .  S
C230        C231   1.411       .  A
C231        C232   1.400       .  A
C231       Br238   1.920       .  S
C232        C233   1.404       .  A
C232        H237   1.084       .  S
C233        C234   1.410       .  A
C234       Br235   1.920       .  S
C239        C240   1.403       .  A
C239        C244   1.401       .  A
C239        H246   1.083       .  S
C240        C241   1.409       .  A
C241        C242   1.398       .  A
C241       Br248   1.920       .  S
C242        C243   1.403       .  A
C242        H247   1.084       .  S
C243        C244   1.410       .  A
C244       Br245   1.919       .  S
C249        C250   1.403       .  A
C249        C254   1.398       .  A
C249        H256   1.084       .  S
C250        C579   1.410       .  A
C251        C252   1.399       .  A
C251        C578   1.410       .  A
C251       Br258   1.920       .  S
C252        C253   1.404       .  A
C252        H257   1.084       .  S
C253        C582   1.411   1_554  A
C254        C581   1.411       .  A
C254       Br255   1.920       .  S
C259        C264   1.399       .  A
C259        C588   1.404       .  A
C259        H266   1.083       .  S
C260        C261   1.413       .  A
C260        C587   1.404   1_554  A
C261        C262   1.400       .  A
C261       Br268   1.921       .  S
C262        C591   1.404       .  A
C262        H267   1.084       .  S
C263        C264   1.411       .  A
C263        C590   1.404       .  A
C264       Br265   1.921       .  S
C269        C270   1.406       .  A
C269        C274   1.399       .  A
C269        H276   1.083       .  S
C270        C271   1.414       .  A
C271        C272   1.399       .  A
C271       Br278   1.921       .  S
C272        C273   1.403       .  A
C272        H277   1.084       .  S
C273        C274   1.411       .  A
C274       Br275   1.921       .  S
C279        C280   1.403       .  A
C279        C284   1.400       .  A
C279        H286   1.084       .  S
C280        C281   1.409       .  A
C281        C282   1.400       .  A
C281       Br288   1.920       .  S
C282        C283   1.407       .  A
C282        H287   1.083       .  S
C283        C284   1.413       .  A
C284       Br285   1.921       .  S
C289        C290   1.407       .  A
C289        C294   1.396       .  A
C289        H296   1.083       .  S
C290        C291   1.414   1_545  A
C291        C292   1.398       .  A
C291       Br298   1.922       .  S
C292        C293   1.407   1_565  A
C292        H297   1.083       .  S
C293        C294   1.414       .  A
C294       Br295   1.923       .  S
C299        C300   1.405   1_545  A
C299        C304   1.396       .  A
C299        H306   1.084       .  S
C300        C301   1.410       .  A
C301        C302   1.398       .  A
C301       Br308   1.921       .  S
C302        C303   1.405       .  A
C302        H307   1.084       .  S
C303        C304   1.411   1_565  A
C304       Br305   1.922       .  S
C309        C310   1.403       .  A
C309        C314   1.401       .  A
C309        H316   1.084       .  S
C310        C639   1.409   1_554  A
C311        C312   1.399       .  A
C311        C638   1.409       .  A
C311       Br318   1.919       .  S
C312        C641   1.406       .  A
C312        H317   1.084       .  S
C313        C314   1.412       .  A
C313        C640   1.406   1_554  A
C314       Br315   1.920       .  S
C319        C324   1.401       .  A
C319        C648   1.402   1_554  A
C319        H326   1.084       .  S
C320        C321   1.408       .  A
C320        C647   1.402       .  A
C321        C322   1.399       .  A
C321       Br328   1.920       .  S
C322        C323   1.404       .  A
C322        H327   1.084       .  S
C323        C652   1.411       .  A
C324        C651   1.411   1_554  A
C324       Br325   1.920       .  S
O329       Ni337   1.921   1_565  S
O329        C339   1.282       .  A
O330        C340   1.280       .  A
O331       Ni337   1.918       .  S
O331        C341   1.281       .  A
O332        C342   1.280       .  A
O334       Ni338   1.921   1_554  S
O335       Ni338   1.911       .  S
O335        C340   1.281       .  A
O336        C339   1.279       .  A
C339        C628   1.477       .  S
C340        C621   1.486       .  S
C341        C638   1.476       .  S
C342        C648   1.473       .  S
O343       Ni351   1.918       .  S
O343        C353   1.281       .  A
O344       Ni351   1.919       .  S
O344        C354   1.281       .  A
O345       Ni351   1.914   1_545  S
O345        C355   1.280       .  A
O346       Ni351   1.915       .  S
O346        C356   1.280       .  A
O347       Ni352   1.922       .  S
O347        C356   1.282       .  A
O348       Ni352   1.922   1_545  S
O348        C355   1.283       .  A
O349       Ni352   1.906   1_545  S
O349        C354   1.280   1_545  A
O350       Ni352   1.908       .  S
O350        C353   1.279       .  A
Ni351      Ni352   2.386       .  S
C353        C631   1.477       .  S
C354        C618   1.486   1_565  S
C355        C601   1.479       .  S
C356        C608   1.477       .  S
C357        C641   1.486       .  S
C357        C358   1.405       .  A
C357        C362   1.404       .  A
C358        C359   1.406       .  A
C358        H363   1.083       .  S
C359        C588   1.485       .  S
C359        C360   1.403       .  A
C360        C361   1.403       .  A
C360        H364   1.084       .  S
C361        C581   1.481       .  S
C361        C362   1.403       .  A
C362        H365   1.084       .  S
C366        C598   1.489       .  S
C366        C367   1.406       .  A
C366        C371   1.406       .  A
C367        C368   1.403       .  A
C367        H372   1.084       .  S
C368        C571   1.479       .  S
C368        C369   1.402       .  A
C369        C370   1.404       .  A
C369        H373   1.084       .  S
C370        C558   1.484       .  S
C370        C371   1.404       .  A
C371        H374   1.082       .  S
C375        C651   1.482       .  S
C375        C376   1.404       .  A
C375        C380   1.404       .  A
C376        C377   1.404       .  A
C376        H381   1.084       .  S
C377        C548   1.479       .  S
C377        C378   1.404       .  A
C378        C379   1.403       .  A
C378        H382   1.084       .  S
C379        C541   1.479       .  S
C379        C380   1.403       .  A
C380        H383   1.084       .  S
C384        C611   1.488       .  S
C384        C385   1.406       .  A
C384        C389   1.407       .  A
C385        C386   1.403       .  A
C385        H390   1.084       .  S
C386        C528   1.479       .  S
C386        C387   1.402       .  A
C387        C388   1.404       .  A
C387        H391   1.084       .  S
C388        C518   1.481       .  S
C388        C389   1.404       .  A
C389        H392   1.083       .  S
C393        C508   1.485       .  S
C393       C1050   1.406   1_455  A
C393        C398   1.405       .  A
C394       C1049   1.406       .  A
C394        C395   1.402       .  A
C394        H399   1.084       .  S
C395        C551   1.479       .  S
C395       C1052   1.403       .  A
C396       C1051   1.403   1_455  A
C396        C397   1.403       .  A
C396        H400   1.084       .  S
C397        C538   1.482       .  S
C397        C398   1.404       .  A
C398        H401   1.083       .  S
C402        C498   1.484       .  S
C402        C403   1.404   1_655  A
C402       C1063   1.406       .  A
C403        C404   1.402       .  A
C403        H408   1.084       .  S
C404        C521   1.480       .  S
C404        C405   1.403   1_455  A
C405       C1062   1.404       .  A
C405        H409   1.084       .  S
C406        C531   1.481       .  S
C406       C1061   1.404       .  A
C406        C407   1.404       .  A
C407       C1058   1.406       .  A
C407        H410   1.084       .  S
C411       C1144   1.481       .  S
C411       C1068   1.405       .  A
C411        C416   1.403       .  A
C412       C1067   1.405       .  A
C412        C413   1.404       .  A
C412        H417   1.084       .  S
C413        C591   1.482       .  S
C413       C1070   1.404       .  A
C414       C1069   1.404       .  A
C414        C415   1.403       .  A
C414        H418   1.084       .  S
C415        C578   1.479       .  S
C415        C416   1.402       .  A
C416        H419   1.084       .  S
C420       C1137   1.479       .  S
C420        C421   1.402   1_655  A
C420       C1081   1.403       .  A
C421        C422   1.402       .  A
C421        H426   1.084       .  S
C422        C568   1.478       .  S
C422        C423   1.404   1_455  A
C423       C1080   1.406       .  A
C423        H427   1.084       .  S
C424        C561   1.481       .  S
C424       C1079   1.406       .  A
C424        C425   1.404       .  A
C425       C1076   1.403       .  A
C425        H428   1.084       .  S
O429       Ni437   1.916   1_556  S
O429        C767   1.281       .  A
O430        C768   1.281       .  A
O431        C441   1.280       .  A
O432       Ni437   1.912   1_556  S
O432        C442   1.281       .  A
O433       Ni438   1.916       .  S
O433       C1098   1.281       .  A
O434       C1097   1.282       .  A
O435       Ni438   1.916   1_554  S
O435        C440   1.280       .  A
O436        C439   1.281       .  A
Ni437     Ni1094   2.388   1_554  S
Ni438     Ni1093   2.388   1_456  S
C439        O757   1.281   1_455  A
C439        C511   1.475       .  S
C440        O758   1.281   1_455  A
C440        C491   1.471       .  S
C441       O1090   1.282       .  A
C441        C468   1.482       .  S
C442       O1089   1.281       .  A
C442        C458   1.479       .  S
O443       Ni451   1.915       .  S
O443       C1109   1.281       .  A
O444       Ni451   1.915       .  S
O444       C1110   1.280       .  A
O445       Ni451   1.913       .  S
O445        C455   1.280       .  A
O446       Ni451   1.913       .  S
O446        C456   1.280       .  A
O447       Ni452   1.921       .  S
O447       C1112   1.281   1_455  A
O448       Ni452   1.922       .  S
O448       C1111   1.282   1_455  A
O449       Ni452   1.915       .  S
O449        C454   1.281   1_455  A
O450       Ni452   1.915       .  S
O450        C453   1.281   1_455  A
Ni451     Ni1108   2.388       .  S
Ni452     Ni1107   2.388   1_455  S
C453       O1099   1.281       .  A
C453        C471   1.483   1_655  S
C454       O1100   1.280       .  A
C454        C461   1.480       .  S
C455       O1104   1.282       .  A
C455        C501   1.474       .  S
C456       O1103   1.281       .  A
C456        C478   1.470       .  S
C457        C458   1.404       .  A
C457        C462   1.397       .  A
C457        H464   1.084       .  S
C458       C1115   1.412       .  A
C459       C1114   1.412       .  A
C459        C460   1.398       .  A
C459       Br466   1.922       .  S
C460        C461   1.405   1_455  A
C460        H465   1.084       .  S
C461       C1118   1.413       .  A
C462       C1117   1.413       .  A
C462       Br463   1.922       .  S
C467        C468   1.405       .  A
C467        C472   1.396       .  A
C467        H474   1.083       .  S
C468       C1125   1.412       .  A
C469       C1124   1.412       .  A
C469        C470   1.401       .  A
C469       Br476   1.921       .  S
C470        C471   1.407       .  A
C470        H475   1.083       .  S
C471       C1128   1.413   1_455  A
C472       C1127   1.413       .  A
C472       Br473   1.922       .  S
C477       C1134   1.402   1_455  A
C477        C482   1.399       .  A
C477        H484   1.084       .  S
C478       C1133   1.402       .  A
C478        C479   1.408       .  A
C479        C480   1.398       .  A
C479       Br486   1.920       .  S
C480        C481   1.404       .  A
C480        H485   1.084       .  S
C481       C1076   1.479       .  S
C481       C1138   1.411       .  A
C482       C1137   1.411   1_455  A
C482       Br483   1.920       .  S
C487        C816   1.405       .  A
C487        C492   1.399       .  A
C487        H494   1.084       .  S
C488       C1067   1.481       .  S
C488        C815   1.405   1_455  A
C488        C489   1.411   1_554  A
C489        C490   1.399       .  A
C489       Br496   1.920       .  S
C490        C491   1.402   1_556  A
C490        H495   1.084       .  S
C491        C820   1.408   1_455  A
C492        C819   1.408       .  A
C492       Br493   1.920       .  S
C497       C1154   1.405       .  A
C497        C502   1.399       .  A
C497        H504   1.084       .  S
C498       C1153   1.405       .  A
C498        C499   1.413   1_655  A
C499        C500   1.400       .  A
C499       Br506   1.921       .  S
C500       C1157   1.402   1_455  A
C500        H505   1.084       .  S
C501       C1156   1.402       .  A
C501        C502   1.409       .  A
C502       Br503   1.920       .  S
C507       C1164   1.405       .  A
C507        C512   1.398       .  A
C507        H514   1.083       .  S
C508       C1163   1.405   1_455  A
C509        C510   1.400       .  A
C509       Br516   1.921       .  S
C510        H515   1.084       .  S
C511       C1168   1.409   1_455  A
C512       C1167   1.409       .  A
C512       Br513   1.920       .  S
C517        C518   1.404       .  A
C517        C522   1.400       .  A
C517        H524   1.084       .  S
C518        C519   1.410       .  A
C519        C520   1.399       .  A
C519       Br526   1.919       .  S
C520        C521   1.403       .  A
C520        H525   1.084       .  S
C521        C522   1.409       .  A
C522       Br523   1.919       .  S
C527        C528   1.403       .  A
C527        C532   1.399       .  A
C527        H534   1.084       .  S
C528        C529   1.409       .  A
C529        C530   1.401       .  A
C529       Br536   1.919       .  S
C530        C531   1.404       .  A
C530        H535   1.084       .  S
C531        C532   1.410       .  A
C532       Br533   1.919       .  S
C537        C542   1.399       .  A
C537        H544   1.084       .  S
C538        C539   1.411       .  A
C539        C540   1.400       .  A
C539       Br546   1.920       .  S
C540        H545   1.084       .  S
C541        C542   1.409       .  A
C542       Br543   1.920       .  S
C547        C552   1.398       .  A
C547        H554   1.084       .  S
C548        C549   1.410       .  A
C549        C550   1.401       .  A
C549       Br556   1.919       .  S
C550        H555   1.084       .  S
C551        C552   1.409       .  A
C552       Br553   1.920       .  S
C557        C558   1.405       .  A
C557        C562   1.399       .  A
C557        H564   1.084       .  S
C558        C559   1.411       .  A
C559        C560   1.400       .  A
C559       Br566   1.920       .  S
C560        C561   1.404       .  A
C560        H565   1.084       .  S
C561        C562   1.410       .  A
C562       Br563   1.920       .  S
C567        C568   1.403       .  A
C567        C572   1.401       .  A
C567        H574   1.083       .  S
C568        C569   1.409       .  A
C569        C570   1.398       .  A
C569       Br576   1.920       .  S
C570        C571   1.403       .  A
C570        H575   1.084       .  S
C571        C572   1.410       .  A
C572       Br573   1.919       .  S
C577        C578   1.403   1_556  A
C577        C582   1.398       .  A
C577        H584   1.084       .  S
C579        C580   1.399       .  A
C579       Br586   1.920       .  S
C580        C581   1.404       .  A
C580        H585   1.084       .  S
C582       Br583   1.920       .  S
C587        C592   1.399       .  A
C587        H594   1.083       .  S
C588        C589   1.413       .  A
C589        C590   1.400       .  A
C589       Br596   1.921       .  S
C590        H595   1.084       .  S
C591        C592   1.411   1_554  A
C592       Br593   1.921       .  S
C597        C598   1.406       .  A
C597        C602   1.399       .  A
C597        H604   1.083       .  S
C598        C599   1.414       .  A
C599        C600   1.399       .  A
C599       Br606   1.921       .  S
C600        C601   1.403       .  A
C600        H605   1.084       .  S
C601        C602   1.411       .  A
C602       Br603   1.921       .  S
C607        C608   1.403       .  A
C607        C612   1.400       .  A
C607        H614   1.084       .  S
C608        C609   1.409       .  A
C609        C610   1.400       .  A
C609       Br616   1.920       .  S
C610        C611   1.407       .  A
C610        H615   1.083       .  S
C611        C612   1.413       .  A
C612       Br613   1.921       .  S
C617        C618   1.407       .  A
C617        C622   1.396       .  A
C617        H624   1.083       .  S
C618        C619   1.414   1_545  A
C619        C620   1.398       .  A
C619       Br626   1.922       .  S
C620        C621   1.407   1_565  A
C620        H625   1.083       .  S
C621        C622   1.414       .  A
C622       Br623   1.923       .  S
C627        C628   1.405   1_545  A
C627        C632   1.396       .  A
C627        H634   1.084       .  S
C628        C629   1.410       .  A
C629        C630   1.398       .  A
C629       Br636   1.921       .  S
C630        C631   1.405       .  A
C630        H635   1.084       .  S
C631        C632   1.411   1_565  A
C632       Br633   1.922       .  S
C637        C638   1.403       .  A
C637        C642   1.401       .  A
C637        H644   1.084       .  S
C639        C640   1.399       .  A
C639       Br646   1.919       .  S
C640        H645   1.084       .  S
C641        C642   1.412       .  A
C642       Br643   1.920       .  S
C647        C652   1.401       .  A
C647        H654   1.084       .  S
C648        C649   1.408       .  A
C649        C650   1.399       .  A
C649       Br656   1.920       .  S
C650        C651   1.404       .  A
C650        H655   1.084       .  S
C652       Br653   1.920       .  S
O657       Ni665   1.921   1_564  S
O657        C667   1.282       .  A
O658       Ni993   1.916       .  S
O658        C668   1.280       .  A
O659       Ni665   1.918       .  S
O659        C669   1.281       .  A
O660       Ni993   1.916   1_565  S
O660        C670   1.280       .  A
O661       Ni994   1.922   1_565  S
O661        C998   1.282       .  A
O662       Ni666   1.921       .  S
O662        C997   1.282       .  A
O663       Ni666   1.911       .  S
O663        C668   1.281       .  A
O664       Ni994   1.904   1_564  S
O664        C667   1.279       .  A
Ni665       O986   1.916       .  S
Ni665       O988   1.916   1_545  S
Ni665      Ni994   2.387       .  S
Ni666       O989   1.922   1_545  S
Ni666       O992   1.904   1_545  S
Ni666      Ni993   2.387       .  S
C667        C956   1.477       .  S
C668        C949   1.486       .  S
C669        O990   1.282   1_556  A
C669        C966   1.476   1_556  S
C670        O989   1.282       .  A
C670        C976   1.473       .  S
O671       Ni679   1.918       .  S
O671        C681   1.281       .  A
O672       Ni679   1.919       .  S
O672        C682   1.281       .  A
O673       Ni679   1.914   1_545  S
O673        C683   1.280       .  A
O674       Ni679   1.915       .  S
O674        C684   1.280       .  A
O675       Ni680   1.922       .  S
O675        C684   1.282       .  A
O676       Ni680   1.922   1_545  S
O676        C683   1.283       .  A
O677       Ni680   1.907   1_545  S
O677        C682   1.280   1_545  A
O678       Ni680   1.908       .  S
O678        C681   1.279       .  A
Ni679      Ni680   2.386       .  S
C681        C959   1.477       .  S
C682        C946   1.486   1_565  S
C683        C929   1.479       .  S
C684        C936   1.477       .  S
C685        C969   1.486       .  S
C685        C686   1.405       .  A
C685        C690   1.404       .  A
C686        C687   1.406       .  A
C686        H691   1.083       .  S
C687        C916   1.485       .  S
C687        C688   1.403       .  A
C688        C689   1.403       .  A
C688        H692   1.084       .  S
C689        C909   1.481       .  S
C689        C690   1.403       .  A
C690        H693   1.084       .  S
C694        C926   1.489       .  S
C694        C695   1.406       .  A
C694        C699   1.406       .  A
C695        C696   1.403       .  A
C695        H700   1.084       .  S
C696        C899   1.479       .  S
C696        C697   1.402       .  A
C697        C698   1.404       .  A
C697        H701   1.084       .  S
C698        C886   1.484       .  S
C698        C699   1.404       .  A
C699        H702   1.082       .  S
C703        C979   1.482       .  S
C703        C704   1.404       .  A
C703        C708   1.404       .  A
C704        C705   1.404       .  A
C704        H709   1.084       .  S
C705        C876   1.479       .  S
C705        C706   1.404       .  A
C706        C707   1.403       .  A
C706        H710   1.084       .  S
C707        C869   1.479       .  S
C707        C708   1.403       .  A
C708        H711   1.084       .  S
C712        C939   1.488       .  S
C712        C713   1.406       .  A
C712        C717   1.407       .  A
C713        C714   1.403       .  A
C713        H718   1.084       .  S
C714        C856   1.479       .  S
C714        C715   1.402       .  A
C715        C716   1.404       .  A
C715        H719   1.084       .  S
C716        C846   1.481       .  S
C716        C717   1.404       .  A
C717        H720   1.083       .  S
C721        C836   1.485       .  S
C721        C726   1.405       .  A
C722        C723   1.402       .  A
C722        H727   1.084       .  S
C723        C879   1.479       .  S
C724        C725   1.403       .  A
C724        H728   1.084       .  S
C725        C866   1.482       .  S
C725        C726   1.404       .  A
C726        H729   1.083       .  S
C730        C826   1.484       .  S
C730        C731   1.404       .  A
C731        C732   1.402       .  A
C731        H736   1.084       .  S
C732        C849   1.480       .  S
C732        C733   1.403       .  A
C733        H737   1.084       .  S
C734        C859   1.481       .  S
C734        C735   1.404       .  A
C735        H738   1.084       .  S
C739        C744   1.403   1_455  A
C740        C741   1.404       .  A
C740        H745   1.084       .  S
C741        C919   1.482       .  S
C742        C743   1.403   1_455  A
C742        H746   1.084       .  S
C743        C906   1.479       .  S
C743        C744   1.402       .  A
C744        H747   1.084       .  S
C748        C749   1.402       .  A
C749        C750   1.402       .  A
C749        H754   1.084       .  S
C750        C896   1.478       .  S
C750        C751   1.404       .  A
C751        H755   1.084       .  S
C752        C889   1.481       .  S
C752        C753   1.404       .  A
C753        H756   1.084       .  S
O757       Ni765   1.916       .  S
O758      Ni1093   1.916       .  S
O759      Ni1093   1.908       .  S
O759        C769   1.280   1_655  A
O760       Ni765   1.912       .  S
O760        C770   1.281   1_655  A
O761       Ni766   1.916       .  S
O762      Ni1094   1.924   1_554  S
O763       Ni766   1.916       .  S
O763        C768   1.280       .  A
O764      Ni1094   1.918       .  S
O764        C767   1.281       .  A
Ni765      O1086   1.916       .  S
Ni765      O1087   1.908       .  S
Ni766      O1090   1.924       .  S
Ni766      O1092   1.918       .  S
C767        C839   1.475       .  S
C768        C819   1.471       .  S
C769        C796   1.482       .  S
C770        C786   1.479       .  S
O771       Ni779   1.915       .  S
O772       Ni779   1.915       .  S
O773       Ni779   1.913       .  S
O773        C783   1.280       .  A
O774       Ni779   1.913       .  S
O774        C784   1.280       .  A
O775       Ni780   1.921       .  S
O776       Ni780   1.922       .  S
O777       Ni780   1.915       .  S
O777        C782   1.281       .  A
O778       Ni780   1.915       .  S
O778        C781   1.281       .  A
C781        C799   1.483       .  S
C782        C789   1.480       .  S
C783        C829   1.474       .  S
C784        C806   1.470       .  S
C785        C786   1.404   1_655  A
C785        C790   1.397       .  A
C785        H792   1.084       .  S
C787        C788   1.398       .  A
C787       Br794   1.922       .  S
C788        C789   1.405       .  A
C788        H793   1.084       .  S
C790       Br791   1.922       .  S
C795        C796   1.405   1_655  A
C795        C800   1.396       .  A
C795        H802   1.083       .  S
C797        C798   1.401       .  A
C797       Br804   1.921       .  S
C798        C799   1.407       .  A
C798        H803   1.083       .  S
C800       Br801   1.922       .  S
C805        C810   1.399       .  A
C805        H812   1.084       .  S
C806        C807   1.408       .  A
C807        C808   1.398       .  A
C807       Br814   1.920       .  S
C808        C809   1.404       .  A
C808        H813   1.084       .  S
C810       Br811   1.920       .  S
C815        C820   1.399       .  A
C815        H822   1.084       .  S
C816        C817   1.411       .  A
C817        C818   1.399       .  A
C817       Br824   1.920       .  S
C818        C819   1.402       .  A
C818        H823   1.084       .  S
C820       Br821   1.920       .  S
C825        C830   1.399       .  A
C825        H832   1.084       .  S
C826        C827   1.413       .  A
C827        C828   1.400       .  A
C827       Br834   1.921       .  S
C828        H833   1.084       .  S
C829        C830   1.409       .  A
C830       Br831   1.920       .  S
C835        C840   1.398       .  A
C835        H842   1.083       .  S
C836       C1165   1.413       .  A
C837       C1164   1.413       .  A
C837        C838   1.400       .  A
C837       Br844   1.921       .  S
C838       C1167   1.404       .  A
C838        H843   1.084       .  S
C839       C1166   1.404       .  A
C840       Br841   1.920       .  S
C845        C846   1.404       .  A
C845        C850   1.400       .  A
C845        H852   1.084       .  S
C846        C847   1.410       .  A
C847        C848   1.399       .  A
C847       Br854   1.919       .  S
C848        C849   1.403       .  A
C848        H853   1.084       .  S
C849        C850   1.409       .  A
C850       Br851   1.919       .  S
C855        C856   1.403       .  A
C855        C860   1.399       .  A
C855        H862   1.084       .  S
C856        C857   1.409       .  A
C857        C858   1.401       .  A
C857       Br864   1.919       .  S
C858        C859   1.404       .  A
C858        H863   1.084       .  S
C859        C860   1.410       .  A
C860       Br861   1.919       .  S
C865       C1194   1.404       .  A
C865        C870   1.399       .  A
C865        H872   1.084       .  S
C866       C1193   1.404       .  A
C866        C867   1.411   1_556  A
C867        C868   1.400       .  A
C867       Br874   1.920       .  S
C868       C1197   1.403   1_554  A
C868        H873   1.084       .  S
C869       C1196   1.403       .  A
C869        C870   1.409       .  A
C870       Br871   1.920       .  S
C875       C1204   1.402   1_554  A
C875        C880   1.398       .  A
C875        H882   1.084       .  S
C876       C1203   1.402       .  A
C876        C877   1.410       .  A
C877        C878   1.401       .  A
C877       Br884   1.919       .  S
C878       C1207   1.404       .  A
C878        H883   1.084       .  S
C879       C1206   1.404       .  A
C879        C880   1.409   1_556  A
C880       Br881   1.920       .  S
C885        C886   1.405       .  A
C885        C890   1.399       .  A
C885        H892   1.084       .  S
C886        C887   1.411       .  A
C887        C888   1.400       .  A
C887       Br894   1.920       .  S
C888        C889   1.404       .  A
C888        H893   1.084       .  S
C889        C890   1.410       .  A
C890       Br891   1.920       .  S
C895        C896   1.403       .  A
C895        C900   1.401       .  A
C895        H902   1.083       .  S
C896        C897   1.409       .  A
C897        C898   1.398       .  A
C897       Br904   1.920       .  S
C898        C899   1.403       .  A
C898        H903   1.084       .  S
C899        C900   1.410       .  A
C900       Br901   1.919       .  S
C905        C906   1.403       .  A
C905        C910   1.398       .  A
C905        H912   1.084       .  S
C906       C1235   1.410       .  A
C907       C1234   1.410       .  A
C907        C908   1.399       .  A
C907       Br914   1.920       .  S
C908        C909   1.404       .  A
C908        H913   1.084       .  S
C909       C1238   1.411   1_554  A
C910       C1237   1.411       .  A
C910       Br911   1.920       .  S
C915       C1244   1.404       .  A
C915        C920   1.399       .  A
C915        H922   1.083       .  S
C916       C1243   1.404   1_554  A
C916        C917   1.413       .  A
C917        C918   1.400       .  A
C917       Br924   1.921       .  S
C918       C1247   1.404       .  A
C918        H923   1.084       .  S
C919       C1246   1.404       .  A
C919        C920   1.411       .  A
C920       Br921   1.921       .  S
C925        C926   1.406       .  A
C925        C930   1.399       .  A
C925        H932   1.083       .  S
C926        C927   1.414       .  A
C927        C928   1.399       .  A
C927       Br934   1.921       .  S
C928        C929   1.403       .  A
C928        H933   1.084       .  S
C929        C930   1.411       .  A
C930       Br931   1.921       .  S
C935        C936   1.403       .  A
C935        C940   1.400       .  A
C935        H942   1.084       .  S
C936        C937   1.409       .  A
C937        C938   1.400       .  A
C937       Br944   1.920       .  S
C938        C939   1.407       .  A
C938        H943   1.083       .  S
C939        C940   1.413       .  A
C940       Br941   1.921       .  S
C945        C946   1.407       .  A
C945        C950   1.396       .  A
C945        H952   1.083       .  S
C946        C947   1.414   1_545  A
C947        C948   1.398       .  A
C947       Br954   1.922       .  S
C948        C949   1.407   1_565  A
C948        H953   1.083       .  S
C949        C950   1.414       .  A
C950       Br951   1.923       .  S
C955        C956   1.405   1_545  A
C955        C960   1.396       .  A
C955        H962   1.084       .  S
C956        C957   1.410       .  A
C957        C958   1.398       .  A
C957       Br964   1.921       .  S
C958        C959   1.405       .  A
C958        H963   1.084       .  S
C959        C960   1.411   1_565  A
C960       Br961   1.922       .  S
C965        C966   1.403       .  A
C965        C970   1.401       .  A
C965        H972   1.084       .  S
C966       C1295   1.409   1_554  A
C967       C1294   1.409       .  A
C967        C968   1.399       .  A
C967       Br974   1.919       .  S
C968       C1297   1.406       .  A
C968        H973   1.084       .  S
C969       C1296   1.406   1_554  A
C969        C970   1.412       .  A
C970       Br971   1.920       .  S
C975       C1304   1.402   1_554  A
C975        C980   1.401       .  A
C975        H982   1.084       .  S
C976       C1303   1.402       .  A
C976        C977   1.408       .  A
C977        C978   1.399       .  A
C977       Br984   1.920       .  S
C978        C979   1.404       .  A
C978        H983   1.084       .  S
C979       C1308   1.411       .  A
C980       C1307   1.411   1_554  A
C980       Br981   1.920       .  S
O985       Ni993   1.921   1_565  S
O985        C995   1.282       .  A
O986        C996   1.280       .  A
O987       Ni993   1.918       .  S
O987        C997   1.281       .  A
O988        C998   1.280       .  A
O990       Ni994   1.921   1_554  S
O991       Ni994   1.911       .  S
O991        C996   1.281       .  A
O992        C995   1.279       .  A
C995       C1284   1.477       .  S
C996       C1277   1.486       .  S
C997       C1294   1.476       .  S
C998       C1304   1.473       .  S
O999      Ni1007   1.918       .  S
O999       C1009   1.281       .  A
O1000     Ni1007   1.919       .  S
O1000      C1010   1.281       .  A
O1001     Ni1007   1.914   1_545  S
O1001      C1011   1.280       .  A
O1002     Ni1007   1.915       .  S
O1002      C1012   1.280       .  A
O1003     Ni1008   1.922       .  S
O1003      C1012   1.282       .  A
O1004     Ni1008   1.922   1_545  S
O1004      C1011   1.283       .  A
O1005     Ni1008   1.906   1_545  S
O1005      C1010   1.280   1_545  A
O1006     Ni1008   1.908       .  S
O1006      C1009   1.279       .  A
Ni1007    Ni1008   2.386       .  S
C1009      C1287   1.477       .  S
C1010      C1274   1.486   1_565  S
C1011      C1257   1.479       .  S
C1012      C1264   1.477       .  S
C1013      C1297   1.486       .  S
C1013      C1014   1.405       .  A
C1013      C1018   1.404       .  A
C1014      C1015   1.406       .  A
C1014      H1019   1.083       .  S
C1015      C1244   1.485       .  S
C1015      C1016   1.403       .  A
C1016      C1017   1.403       .  A
C1016      H1020   1.084       .  S
C1017      C1237   1.481       .  S
C1017      C1018   1.403       .  A
C1018      H1021   1.084       .  S
C1022      C1254   1.489       .  S
C1022      C1023   1.406       .  A
C1022      C1027   1.406       .  A
C1023      C1024   1.403       .  A
C1023      H1028   1.084       .  S
C1024      C1227   1.479       .  S
C1024      C1025   1.402       .  A
C1025      C1026   1.404       .  A
C1025      H1029   1.084       .  S
C1026      C1214   1.484       .  S
C1026      C1027   1.404       .  A
C1027      H1030   1.082       .  S
C1031      C1307   1.482       .  S
C1031      C1032   1.404       .  A
C1031      C1036   1.404       .  A
C1032      C1033   1.404       .  A
C1032      H1037   1.084       .  S
C1033      C1204   1.479       .  S
C1033      C1034   1.404       .  A
C1034      C1035   1.403       .  A
C1034      H1038   1.084       .  S
C1035      C1197   1.479       .  S
C1035      C1036   1.403       .  A
C1036      H1039   1.084       .  S
C1040      C1267   1.488       .  S
C1040      C1041   1.406       .  A
C1040      C1045   1.407       .  A
C1041      C1042   1.403       .  A
C1041      H1046   1.084       .  S
C1042      C1184   1.479       .  S
C1042      C1043   1.402       .  A
C1043      C1044   1.404       .  A
C1043      H1047   1.084       .  S
C1044      C1174   1.481       .  S
C1044      C1045   1.404       .  A
C1045      H1048   1.083       .  S
C1049      C1164   1.485       .  S
C1049      C1054   1.405       .  A
C1050      C1051   1.402       .  A
C1050      H1055   1.084       .  S
C1051      C1207   1.479       .  S
C1052      C1053   1.403       .  A
C1052      H1056   1.084       .  S
C1053      C1194   1.482       .  S
C1053      C1054   1.404       .  A
C1054      H1057   1.083       .  S
C1058      C1154   1.484       .  S
C1058      C1059   1.404       .  A
C1059      C1060   1.402       .  A
C1059      H1064   1.084       .  S
C1060      C1177   1.480       .  S
C1060      C1061   1.403       .  A
C1061      H1065   1.084       .  S
C1062      C1187   1.481       .  S
C1062      C1063   1.404       .  A
C1063      H1066   1.084       .  S
C1067      C1072   1.403   1_455  A
C1068      C1069   1.404       .  A
C1068      H1073   1.084       .  S
C1069      C1247   1.482       .  S
C1070      C1071   1.403   1_455  A
C1070      H1074   1.084       .  S
C1071      C1234   1.479       .  S
C1071      C1072   1.402       .  A
C1072      H1075   1.084       .  S
C1076      C1077   1.402       .  A
C1077      C1078   1.402       .  A
C1077      H1082   1.084       .  S
C1078      C1224   1.478       .  S
C1078      C1079   1.404       .  A
C1079      H1083   1.084       .  S
C1080      C1217   1.481       .  S
C1080      C1081   1.404       .  A
C1081      H1084   1.084       .  S
O1085     Ni1093   1.916   1_556  S
O1087      C1097   1.280   1_655  A
O1088     Ni1093   1.912   1_556  S
O1088      C1098   1.281   1_655  A
O1089     Ni1094   1.916       .  S
O1091     Ni1094   1.916   1_554  S
O1091      C1096   1.280       .  A
O1092      C1095   1.281       .  A
C1095      C1167   1.475       .  S
C1096      C1147   1.471       .  S
C1097      C1124   1.482       .  S
C1098      C1114   1.479       .  S
O1099     Ni1107   1.915       .  S
O1100     Ni1107   1.915       .  S
O1101     Ni1107   1.913       .  S
O1101      C1111   1.280       .  A
O1102     Ni1107   1.913       .  S
O1102      C1112   1.280       .  A
O1103     Ni1108   1.921       .  S
O1104     Ni1108   1.922       .  S
O1105     Ni1108   1.915       .  S
O1105      C1110   1.281       .  A
O1106     Ni1108   1.915       .  S
O1106      C1109   1.281       .  A
C1109      C1127   1.483       .  S
C1110      C1117   1.480       .  S
C1111      C1157   1.474       .  S
C1112      C1134   1.470       .  S
C1113      C1114   1.404   1_655  A
C1113      C1118   1.397       .  A
C1113      H1120   1.084       .  S
C1115      C1116   1.398       .  A
C1115     Br1122   1.922       .  S
C1116      C1117   1.405       .  A
C1116      H1121   1.084       .  S
C1118     Br1119   1.922       .  S
C1123      C1124   1.405   1_655  A
C1123      C1128   1.396       .  A
C1123      H1130   1.083       .  S
C1125      C1126   1.401       .  A
C1125     Br1132   1.921       .  S
C1126      C1127   1.407       .  A
C1126      H1131   1.083       .  S
C1128     Br1129   1.922       .  S
C1133      C1138   1.399       .  A
C1133      H1140   1.084       .  S
C1134      C1135   1.408       .  A
C1135      C1136   1.398       .  A
C1135     Br1142   1.920       .  S
C1136      C1137   1.404       .  A
C1136      H1141   1.084       .  S
C1138     Br1139   1.920       .  S
C1143      C1148   1.399       .  A
C1143      H1150   1.084       .  S
C1144      C1145   1.411   1_554  A
C1145      C1146   1.399       .  A
C1145     Br1152   1.920       .  S
C1146      C1147   1.402   1_556  A
C1146      H1151   1.084       .  S
C1148     Br1149   1.920       .  S
C1153      C1158   1.399       .  A
C1153      H1160   1.084       .  S
C1154      C1155   1.413       .  A
C1155      C1156   1.400       .  A
C1155     Br1162   1.921       .  S
C1156      H1161   1.084       .  S
C1157      C1158   1.409       .  A
C1158     Br1159   1.920       .  S
C1163      C1168   1.398       .  A
C1163      H1170   1.083       .  S
C1165      C1166   1.400       .  A
C1165     Br1172   1.921       .  S
C1166      H1171   1.084       .  S
C1168     Br1169   1.920       .  S
C1173      C1174   1.404       .  A
C1173      C1178   1.400       .  A
C1173      H1180   1.084       .  S
C1174      C1175   1.410       .  A
C1175      C1176   1.399       .  A
C1175     Br1182   1.919       .  S
C1176      C1177   1.403       .  A
C1176      H1181   1.084       .  S
C1177      C1178   1.409       .  A
C1178     Br1179   1.919       .  S
C1183      C1184   1.403       .  A
C1183      C1188   1.399       .  A
C1183      H1190   1.084       .  S
C1184      C1185   1.409       .  A
C1185      C1186   1.401       .  A
C1185     Br1192   1.919       .  S
C1186      C1187   1.404       .  A
C1186      H1191   1.084       .  S
C1187      C1188   1.410       .  A
C1188     Br1189   1.919       .  S
C1193      C1198   1.399       .  A
C1193      H1200   1.084       .  S
C1194      C1195   1.411       .  A
C1195      C1196   1.400       .  A
C1195     Br1202   1.920       .  S
C1196      H1201   1.084       .  S
C1197      C1198   1.409       .  A
C1198     Br1199   1.920       .  S
C1203      C1208   1.398       .  A
C1203      H1210   1.084       .  S
C1204      C1205   1.410       .  A
C1205      C1206   1.401       .  A
C1205     Br1212   1.919       .  S
C1206      H1211   1.084       .  S
C1207      C1208   1.409       .  A
C1208     Br1209   1.920       .  S
C1213      C1214   1.405       .  A
C1213      C1218   1.399       .  A
C1213      H1220   1.084       .  S
C1214      C1215   1.411       .  A
C1215      C1216   1.400       .  A
C1215     Br1222   1.920       .  S
C1216      C1217   1.404       .  A
C1216      H1221   1.084       .  S
C1217      C1218   1.410       .  A
C1218     Br1219   1.920       .  S
C1223      C1224   1.403       .  A
C1223      C1228   1.401       .  A
C1223      H1230   1.083       .  S
C1224      C1225   1.409       .  A
C1225      C1226   1.398       .  A
C1225     Br1232   1.920       .  S
C1226      C1227   1.403       .  A
C1226      H1231   1.084       .  S
C1227      C1228   1.410       .  A
C1228     Br1229   1.919       .  S
C1233      C1234   1.403   1_556  A
C1233      C1238   1.398       .  A
C1233      H1240   1.084       .  S
C1235      C1236   1.399       .  A
C1235     Br1242   1.920       .  S
C1236      C1237   1.404       .  A
C1236      H1241   1.084       .  S
C1238     Br1239   1.920       .  S
C1243      C1248   1.399       .  A
C1243      H1250   1.083       .  S
C1244      C1245   1.413       .  A
C1245      C1246   1.400       .  A
C1245     Br1252   1.921       .  S
C1246      H1251   1.084       .  S
C1247      C1248   1.411   1_554  A
C1248     Br1249   1.921       .  S
C1253      C1254   1.406       .  A
C1253      C1258   1.399       .  A
C1253      H1260   1.083       .  S
C1254      C1255   1.414       .  A
C1255      C1256   1.399       .  A
C1255     Br1262   1.921       .  S
C1256      C1257   1.403       .  A
C1256      H1261   1.084       .  S
C1257      C1258   1.411       .  A
C1258     Br1259   1.921       .  S
C1263      C1264   1.403       .  A
C1263      C1268   1.400       .  A
C1263      H1270   1.084       .  S
C1264      C1265   1.409       .  A
C1265      C1266   1.400       .  A
C1265     Br1272   1.920       .  S
C1266      C1267   1.407       .  A
C1266      H1271   1.083       .  S
C1267      C1268   1.413       .  A
C1268     Br1269   1.921       .  S
C1273      C1274   1.407       .  A
C1273      C1278   1.396       .  A
C1273      H1280   1.083       .  S
C1274      C1275   1.414   1_545  A
C1275      C1276   1.398       .  A
C1275     Br1282   1.922       .  S
C1276      C1277   1.407   1_565  A
C1276      H1281   1.083       .  S
C1277      C1278   1.414       .  A
C1278     Br1279   1.923       .  S
C1283      C1284   1.405   1_545  A
C1283      C1288   1.396       .  A
C1283      H1290   1.084       .  S
C1284      C1285   1.410       .  A
C1285      C1286   1.398       .  A
C1285     Br1292   1.921       .  S
C1286      C1287   1.405       .  A
C1286      H1291   1.084       .  S
C1287      C1288   1.411   1_565  A
C1288     Br1289   1.922       .  S
C1293      C1294   1.403       .  A
C1293      C1298   1.401       .  A
C1293      H1300   1.084       .  S
C1295      C1296   1.399       .  A
C1295     Br1302   1.919       .  S
C1296      H1301   1.084       .  S
C1297      C1298   1.412       .  A
C1298     Br1299   1.920       .  S
C1303      C1308   1.401       .  A
C1303      H1310   1.084       .  S
C1304      C1305   1.408       .  A
C1305      C1306   1.399       .  A
C1305     Br1312   1.920       .  S
C1306      C1307   1.404       .  A
C1306      H1311   1.084       .  S
C1308     Br1309   1.920       .  S
