geometry optimzed in LAMMPS
_audit_creation_date              2020-12-01 
_audit_creation_method            'lammps2cif' 
_symmetry_space_group_name_H-M    'P1' 
_symmetry_Int_Tables_number       1 
_symmetry_cell_setting            triclinic 
loop_ 
_symmetry_equiv_pos_as_xyz 
  x,y,z 
_cell_length_a                    35.97153585 
_cell_length_b                    35.69131477072497 
_cell_length_c                    34.76123298833737 
_cell_angle_alpha                 88.85408995596902 
_cell_angle_beta                  91.20687073762221 
_cell_angle_gamma                 90.3259620556788 
loop_ 
_atom_site_label 
_atom_site_type_symbol 
_atom_site_fract_x 
_atom_site_fract_y 
_atom_site_fract_z 
_atom_site_charge 
N1          N  0.15081141  0.83289114  0.51245811    -0.03200
C2          C  0.18251813  0.83629120  0.53517028    -0.00600
C3          C  0.21357692  0.82386850  0.51639509    -0.23400
C4          C  0.20165155  0.81011184  0.48263721    -0.23700
C5          C  0.16359361  0.81480787  0.48096214    -0.00700
H6          H  0.24146766  0.82037764  0.52821702     0.13100
H7          H  0.21860849  0.79534414  0.46260242     0.13200
N8          N  0.97299933  0.04467132  0.49281280    -0.03200
C9          C  0.96635526  0.06978765  0.52131612    -0.00600
C10         C  0.97128669  0.10616973  0.50774268    -0.23400
C11         C  0.97632447  0.10441504  0.46942263    -0.23700
C12         C  0.97574719  0.06678886  0.46036416    -0.00700
H13         H  0.96460456  0.13161906  0.52255305     0.13100
H14         H  0.97549796  0.12833092  0.44980230     0.13200
N15         N  0.95427779  0.85325664  0.49976881    -0.03200
C16         C  0.92060095  0.86316395  0.51396286    -0.00600
C17         C  0.90238050  0.88623957  0.48743680    -0.23400
C18         C  0.91882583  0.87934455  0.45323065    -0.23700
C19         C  0.94583377  0.85227253  0.46144068    -0.00700
H20         H  0.87522187  0.89862752  0.49034442     0.13100
H21         H  0.90477899  0.88438352  0.42578406     0.13200
N22         N  0.54194771  0.87588258  0.11145129    -0.03200
C23         C  0.51046078  0.88082212  0.13198105    -0.00600
C24         C  0.51772418  0.90793090  0.15949177    -0.23400
C25         C  0.55550188  0.91258793  0.16151759    -0.23700
C26         C  0.56894015  0.88511581  0.13829165    -0.00700
H27         H  0.49928979  0.91642923  0.18190764     0.13100
H28         H  0.57011535  0.92460533  0.18591043     0.13200
N29         N  0.94323693  0.45612677  0.08858036    -0.03200
C30         C  0.91229465  0.47716957  0.07969488    -0.00600
C31         C  0.89023296  0.45848888  0.05321744    -0.23400
C32         C  0.90139408  0.42196928  0.05580333    -0.23700
C33         C  0.92999427  0.42071055  0.08338570    -0.00700
H34         H  0.86321770  0.46739955  0.04231430     0.13100
H35         H  0.88353510  0.39886312  0.04750738     0.13200
N36         N  0.96377033  0.44526330  0.90146867    -0.03200
C37         C  0.95363339  0.40868636  0.90550494    -0.00600
C38         C  0.92292026  0.40690327  0.92936349    -0.23400
C39         C  0.90772860  0.44201352  0.92809403    -0.23700
C40         C  0.92993763  0.46246965  0.90332715    -0.00700
H41         H  0.90665964  0.38219936  0.93636744     0.13100
H42         H  0.87916308  0.44806383  0.93483401     0.13200
N43         N  0.56048006  0.02944342  0.87311555    -0.03200
C44         C  0.52892015  0.02593256  0.85096504    -0.00600
C45         C  0.53825146  0.01690116  0.81369241    -0.23400
C46         C  0.57605254  0.01913050  0.81178170    -0.23700
C47         C  0.58827690  0.03250627  0.84688124    -0.00700
H48         H  0.51969010  0.01588140  0.78880084     0.13100
H49         H  0.59093258  0.02130322  0.78505262     0.13200
N50         N  0.16020061  0.43479600  0.92490326    -0.03200
C51         C  0.17157679  0.39866854  0.93003406    -0.00600
C52         C  0.20093255  0.39866399  0.95697670    -0.23400
C53         C  0.21511683  0.43428442  0.95632673    -0.23700
C54         C  0.19279037  0.45394076  0.93029935    -0.00700
H55         H  0.21771642  0.37489472  0.96601846     0.13100
H56         H  0.24290262  0.44193484  0.96592571     0.13200
N57         N  0.57116421  0.83527276  0.91464778    -0.03200
C58         C  0.54338754  0.82064552  0.89185289    -0.00600
C59         C  0.55513269  0.81458706  0.85493826    -0.23400
C60         C  0.59169428  0.82315772  0.85464163    -0.23700
C61         C  0.60145521  0.83448792  0.89141015    -0.00700
H62         H  0.53988422  0.80033852  0.83229872     0.13100
H63         H  0.61019524  0.81695575  0.83147291     0.13200
N64         N  0.07219175  0.35359761  0.38839719    -0.03200
C65         C  0.05456105  0.35614049  0.35332233    -0.00600
C66         C  0.07727193  0.37487021  0.32767796    -0.23400
C67         C  0.11220623  0.37246454  0.34375931    -0.23700
C68         C  0.10844260  0.35178078  0.37789475    -0.00700
H69         H  0.07107767  0.38126511  0.29766982     0.13100
H70         H  0.13704298  0.37492746  0.32681533     0.13200
O71         O  0.32222566  0.22757796  0.19211923    -0.88000
C72         C  0.21616038  0.18935793  0.20913233     0.88000
Mg73       Mg  0.36529785  0.19343928  0.16865245     1.58100
O74         O  0.27382831  0.20443787  0.29200375    -0.87800
O75         O  0.30939895  0.26702850  0.23695967    -0.75100
C76         C  0.36550500  0.04696009  0.28074371     0.93100
O77         O  0.27989366  0.16685137  0.13899860    -0.74900
O78         O  0.37582556  0.05507045  0.24682289    -0.82400
Mg79       Mg  0.27198550  0.22830420  0.15763893     1.58000
C80         C  0.27061693  0.11387319  0.37333601     0.93000
O81         O  0.25909380  0.28954722  0.16768046    -0.80700
H82         H  0.30432939  0.23729696  0.32654930    -0.11600
C83         C  0.26741800  0.09735775  0.25267340     0.87900
O84         O  0.39171136  0.18295368  0.22852267    -0.75200
O85         O  0.24359929  0.21024921  0.20989952    -0.87900
O86         O  0.25372045  0.14303737  0.36093425    -0.80800
C87         C  0.18453536  0.23002052  0.31440052     0.93100
C88         C  0.23041507  0.30222645  0.18342701     0.92900
Mg89       Mg  0.32888256  0.12243194  0.30471771     1.58000
O90         O  0.33587413  0.06066273  0.29336520    -0.80700
O91         O  0.32400531  0.18431627  0.32219924    -0.74900
O92         O  0.19214601  0.23998244  0.28010644    -0.80800
O93         O  0.30637723  0.25255280  0.10826286    -0.82500
O94         O  0.40645591  0.10488588  0.17838531    -0.80800
C95         C  0.30055542  0.20998420  0.31413597     0.87400
O96         O  0.35690925  0.13878615  0.25260259    -0.87900
O97         O  0.27661474  0.12347048  0.27368569    -0.88000
O98         O  0.28935647  0.08509995  0.22761972    -0.75100
Mg99       Mg  0.25077332  0.24943958  0.25654126     1.58000
O100        O  0.19562720  0.19871004  0.32807842    -0.82500
H101        H  0.35778754  0.26809213  0.20781072    -0.06200
O102        O  0.32784773  0.14571768  0.17208947    -0.87700
H103        H  0.30010416  0.11407019  0.13412930    -0.06000
H104        H  0.40129795  0.15886273  0.28120902    -0.06200
C105        C  0.30275567  0.14088153  0.14789090     0.87400
C106        C  0.33109858  0.25469711  0.21184984     0.87900
C107        C  0.38413278  0.15974910  0.25530276     0.88000
H108        H  0.24028053  0.08459818  0.25569283    -0.06200
O109        O  0.20803562  0.16899786  0.23825837    -0.75200
Mg110      Mg  0.34891802  0.09943744  0.20675163     1.58000
H111        H  0.19860421  0.18862724  0.18352469    -0.06200
C112        C  0.33713114  0.24007261  0.09682988     0.93000
O113        O  0.40862403  0.15761133  0.14300987    -0.82400
C114        C  0.42084883  0.12534083  0.15207545     0.93000
O115        O  0.22331493  0.29302750  0.21793163    -0.82400
Mg116      Mg  0.23509095  0.15854876  0.29893903     1.58200
O117        O  0.34765143  0.20750613  0.10717211    -0.80700
O118        O  0.29928289  0.10187955  0.35725584    -0.82400
N119        N  0.45613931  0.94413028  0.41536688    -0.03200
C120        C  0.46557256  0.95818641  0.37998113    -0.00600
C121        C  0.48982081  0.93374760  0.36336222    -0.23400
C122        C  0.48312572  0.90001773  0.38145002    -0.23700
C123        C  0.45560806  0.90672430  0.40823070    -0.00700
H124        H  0.50166671  0.93684016  0.33509658     0.13100
H125        H  0.48863091  0.87375495  0.36772371     0.13200
O126        O  0.31850930  0.73528696  0.31494926    -0.88000
C127        C  0.21906389  0.72906024  0.25483585     0.88000
Mg128      Mg  0.36708207  0.75843604  0.28685914     1.58100
O129        O  0.27224504  0.64701291  0.27316994    -0.87800
O130        O  0.29664001  0.68979707  0.35016094    -0.75100
C131        C  0.39193916  0.66497875  0.13168853     0.93100
O132        O  0.29034319  0.79323065  0.24850451    -0.74900
O133        O  0.40049577  0.69609321  0.14655559    -0.82400
Mg134      Mg  0.27090878  0.77166506  0.30846782     1.58000
C135        C  0.26989876  0.57755523  0.17658063     0.93000
O136        O  0.24380158  0.75733901  0.36693214    -0.80700
H137        H  0.29163075  0.60583992  0.30795921    -0.06000
C138        C  0.28602532  0.69261520  0.16264203     0.87900
O139        O  0.38986624  0.69836003  0.27771089    -0.75200
O140        O  0.24248517  0.72488387  0.28111401    -0.87900
O141        O  0.26136311  0.58777358  0.20970747    -0.80800
C142        C  0.18352204  0.62078448  0.28240969     0.93100
C143        C  0.21413168  0.73891227  0.37416772     0.92900
Mg144      Mg  0.33599953  0.63285255  0.19594281     1.58000
O145        O  0.36011116  0.64999189  0.13687738    -0.80700
O146        O  0.31783364  0.61069161  0.25665918    -0.74900
O147        O  0.18724402  0.65437079  0.29327579    -0.80800
O148        O  0.30548170  0.81619314  0.34215208    -0.82500
O149        O  0.42105678  0.74264402  0.21631768    -0.80800
C150        C  0.29374553  0.62083074  0.28075447     0.87400
O151        O  0.36471601  0.67812240  0.22386640    -0.87900
O152        O  0.28901132  0.67359296  0.19347355    -0.88000
O153        O  0.31149822  0.71585012  0.15396407    -0.75100
Mg154      Mg  0.24219002  0.67513076  0.31760328     1.58000
O155        O  0.19596267  0.61185421  0.25025899    -0.82500
H156        H  0.34543059  0.71635166  0.36241401    -0.06200
O157        O  0.33601797  0.75684063  0.23304639    -0.87700
H158        H  0.31721608  0.79773378  0.19765003    -0.06000
H159        H  0.39968992  0.64679568  0.25628814    -0.06200
C160        C  0.31474157  0.78298280  0.22494181     0.87400
C161        C  0.32152412  0.71412878  0.34325464     0.87900
C162        C  0.38527077  0.67314042  0.25251940     0.88000
H163        H  0.26190879  0.68933979  0.14390660    -0.06200
O164        O  0.21329969  0.70365558  0.23009652    -0.75200
Mg165      Mg  0.36633931  0.72834845  0.18836083     1.58000
H166        H  0.20299580  0.75456298  0.25300388    -0.06200
C167        C  0.33780091  0.82654364  0.33202466     0.93000
O168        O  0.41434009  0.78841775  0.25587017    -0.82400
C169        C  0.42773600  0.77614834  0.22530741     0.93000
O170        O  0.20779855  0.70720050  0.35946409    -0.82400
Mg171      Mg  0.23989821  0.64544658  0.22019036     1.58200
O172        O  0.34911500  0.81769851  0.29916420    -0.80700
O173        O  0.30019538  0.58911616  0.16240894    -0.82400
O174        O  0.75530713  0.21772583  0.22056916    -0.88000
C175        C  0.79640263  0.10949158  0.22103989     0.88000
Mg176      Mg  0.78969580  0.26395062  0.20106212     1.58100
O177        O  0.78589331  0.15189467  0.31042926    -0.87800
O178        O  0.71969028  0.19457624  0.26548008    -0.75100
C179        C  0.94383838  0.24958757  0.30028291     0.93100
O180        O  0.81294692  0.18374258  0.15866310    -0.74900
O181        O  0.93076404  0.26028413  0.26786704    -0.82400
Mg182      Mg  0.75402503  0.17227553  0.18065628     1.58000
C183        C  0.88331798  0.13202959  0.37772237     0.93000
O184        O  0.69515882  0.15655168  0.19569351    -0.80700
H185        H  0.75550401  0.17263882  0.35255565    -0.06000
C186        C  0.89015341  0.15353597  0.26578088     0.87900
O187        O  0.80440938  0.27970542  0.26392072    -0.75200
O188        O  0.77615989  0.13650406  0.22723982    -0.87900
O189        O  0.84918996  0.12550760  0.37070251    -0.80800
C190        C  0.76121938  0.05911126  0.32058897     0.93100
C191        C  0.68657303  0.12257280  0.20251462     0.92900
Mg192      Mg  0.86850829  0.20555476  0.32998455     1.58000
O193        O  0.92894326  0.22332865  0.31987955    -0.80700
O194        O  0.80809913  0.19373753  0.34968759    -0.74900
O195        O  0.75291226  0.07165157  0.28717125    -0.80800
O196        O  0.72867047  0.21133969  0.13405169    -0.82500
O197        O  0.87411014  0.30386288  0.21996518    -0.80800
C198        C  0.78177063  0.17261161  0.33800257     0.87400
O199        O  0.84810366  0.24105807  0.28303338    -0.87900
O200        O  0.86638403  0.15889956  0.29013041    -0.88000
O201        O  0.89925542  0.17921471  0.24190336    -0.75100
Mg202      Mg  0.73927895  0.13289617  0.27513631     1.58000
O203        O  0.79171327  0.06880994  0.33651966    -0.82500
H204        H  0.71611367  0.24835008  0.24502860    -0.06200
O205        O  0.83446067  0.22477040  0.19893488    -0.87700
H206        H  0.86489123  0.20611622  0.15581590    -0.06000
H207        H  0.82865514  0.28050522  0.31729949    -0.06200
C208        C  0.83875022  0.20518604  0.17056681     0.87400
C209        C  0.72996667  0.22162603  0.24361101     0.87900
C210        C  0.82735400  0.26753035  0.28945907     0.88000
H211        H  0.90309403  0.12634148  0.26443618    -0.06200
O212        O  0.81782700  0.09589522  0.24733204    -0.75200
Mg213      Mg  0.88241008  0.24111132  0.23253768     1.58000
H214        H  0.79560370  0.09683219  0.19308221    -0.06200
C215        C  0.74194486  0.24252958  0.12239064     0.93000
O216        O  0.82897934  0.30846245  0.17622151    -0.82400
C217        C  0.86097590  0.31802571  0.18882889     0.93000
O218        O  0.69509328  0.10788784  0.23492654    -0.82400
Mg219      Mg  0.83138209  0.11277629  0.31025052     1.58200
O220        O  0.77054924  0.25694096  0.13853787    -0.80700
O221        O  0.89460269  0.16565576  0.37500597    -0.82400
N222        N  0.64006732  0.95157757  0.41905539    -0.03200
C223        C  0.63791525  0.97464101  0.38699878    -0.00600
C224        C  0.61267471  0.95966701  0.36090409    -0.23400
C225        C  0.60963587  0.92265652  0.37138646    -0.23700
C226        C  0.63301320  0.91761669  0.40353843    -0.00700
H227        H  0.60615933  0.97079120  0.33236530     0.13100
H228        H  0.60101029  0.90136985  0.35128125     0.13200
O229        O  0.74990085  0.64981745  0.21849326    -0.88000
C230        C  0.85720909  0.68821241  0.21109511     0.88000
Mg231      Mg  0.70428251  0.68870825  0.20815537     1.58100
O232        O  0.82262820  0.66742112  0.30313436    -0.87800
O233        O  0.77307288  0.60757227  0.25808546    -0.75100
C234        C  0.73070833  0.82346917  0.32685106     0.93100
O235        O  0.78048277  0.71657156  0.16318799    -0.74900
O236        O  0.71491493  0.81651452  0.29481973    -0.82400
Mg237      Mg  0.79088174  0.65312571  0.17384461     1.58000
C238        C  0.85590329  0.74946776  0.38376732     0.93000
O239        O  0.80697719  0.59003707  0.17407590    -0.80700
H240        H  0.80679712  0.63125356  0.34447151    -0.06000
C241        C  0.82065282  0.77836665  0.27144759     0.87900
O242        O  0.69526723  0.69254882  0.27409876    -0.75200
O243        O  0.83155472  0.66596659  0.21772052    -0.87900
O244        O  0.86070108  0.71804975  0.36839698    -0.80800
C245        C  0.91330570  0.63968701  0.30073803     0.93100
C246        C  0.83631303  0.57361403  0.18672752     0.92900
Mg247      Mg  0.77763119  0.74782414  0.33856182     1.58000
O248        O  0.76266765  0.81030305  0.33545517    -0.80700
O249        O  0.78843768  0.68459739  0.35060786    -0.74900
O250        O  0.89678735  0.63340902  0.26903464    -0.80800
O251        O  0.74494190  0.63712604  0.13188281    -0.82500
O252        O  0.66895604  0.76661815  0.24204728    -0.80800
C253        C  0.80605659  0.65962123  0.33298857     0.87400
O254        O  0.73593806  0.73376820  0.29479091    -0.87900
O255        O  0.81731205  0.75052860  0.29281180    -0.88000
O256        O  0.79277269  0.79256167  0.25373488    -0.75100
Mg257      Mg  0.83510202  0.62408300  0.26282908     1.58000
O258        O  0.90709396  0.66949232  0.31855062    -0.82500
H259        H  0.71863896  0.60875162  0.24119899    -0.06200
O260        O  0.74416552  0.73346612  0.20903728    -0.87700
H261        H  0.76202082  0.76990317  0.16892579    -0.06000
H262        H  0.70081449  0.70731136  0.33020939    -0.06200
C263        C  0.76208332  0.74142093  0.18010969     0.87400
C264        C  0.74582607  0.62157693  0.23907502     0.87900
C265        C  0.71045618  0.71120875  0.30114921     0.88000
H266        H  0.84770583  0.79073294  0.26727804    -0.06200
O267        O  0.87204862  0.70757546  0.23773885    -0.75200
Mg268      Mg  0.73109133  0.77599423  0.24964367     1.58000
H269        H  0.86712075  0.69140218  0.18206168    -0.06200
C270        C  0.71419496  0.65385440  0.12648904     0.93000
O271        O  0.65971794  0.73131380  0.19190120    -0.82400
C272        C  0.65362262  0.76130776  0.20939850     0.93000
O273        O  0.85106100  0.58157990  0.21900994    -0.82400
Mg274      Mg  0.86294529  0.71203598  0.30334018     1.58200
O275        O  0.70718005  0.68389877  0.14349165    -0.80700
O276        O  0.82497136  0.76618120  0.37945585    -0.82400
N277        N  0.05766110  0.54631061  0.37620606    -0.03200
C278        C  0.08978643  0.56512518  0.36882155    -0.00600
C279        C  0.08343463  0.60267743  0.36068610    -0.23400
C280        C  0.04621092  0.60758408  0.36221723    -0.23700
C281        C  0.03078973  0.57270211  0.37000902    -0.00700
H282        H  0.10336858  0.62345062  0.35101081     0.13100
H283        H  0.03149342  0.63259150  0.35266884     0.13200
N284        N  0.46196637  0.34528692  0.99950697    -0.03200
C285        C  0.42879123  0.35176081  0.01699587    -0.00600
C286        C  0.41005967  0.37946368  0.99633941    -0.23400
C287        C  0.42445795  0.37816474  0.96022767    -0.23700
C288        C  0.45128096  0.34989629  0.96195735    -0.00700
H289        H  0.38273978  0.39014342  0.00242740     0.13100
H290        H  0.40848369  0.38741669  0.93515971     0.13200
O291        O  0.26572568  0.25200684  0.72214376    -0.88000
C292        C  0.27142272  0.20432021  0.82940924     0.88000
Mg293      Mg  0.24196064  0.22085390  0.67503660     1.58100
O294        O  0.35518039  0.22202642  0.78125770    -0.87800
O295        O  0.30938597  0.28939778  0.74319110    -0.75100
C296        C  0.34414681  0.07577222  0.66639954     0.93100
O297        O  0.21026855  0.18989948  0.75886353    -0.74900
O298        O  0.31235119  0.08755791  0.65590597    -0.82400
Mg299      Mg  0.22929565  0.25097915  0.77058456     1.58000
C300        C  0.42633097  0.12737958  0.78978199     0.93000
O301        O  0.24383152  0.31097289  0.78546693    -0.80700
H302        H  0.39446628  0.25610265  0.76007767    -0.06000
C303        C  0.31540645  0.11340440  0.77268332     0.87900
O304        O  0.30069393  0.21252847  0.64997550    -0.75200
O305        O  0.27573929  0.22864455  0.80407208    -0.87900
O306        O  0.41629864  0.15891173  0.80199221    -0.80800
C307        C  0.37209733  0.23896418  0.87559968     0.93100
C308        C  0.25337158  0.31947244  0.81948762     0.92900
Mg309      Mg  0.37105446  0.14553356  0.71880483     1.58000
O310        O  0.35937598  0.08593075  0.69792667    -0.80700
O311        O  0.39044214  0.20554873  0.73426741    -0.74900
O312        O  0.33941346  0.24955831  0.86633929    -0.80800
O313        O  0.18422605  0.27837606  0.73218059    -0.82500
O314        O  0.25900319  0.14693032  0.62548145    -0.80800
C315        C  0.38049839  0.22924808  0.75881464     0.87400
O316        O  0.32371387  0.16751087  0.68639927    -0.87900
O317        O  0.33546444  0.14123357  0.76822333    -0.88000
O318        O  0.29238328  0.10367163  0.74645658    -0.75100
Mg319      Mg  0.32234379  0.26650334  0.80494168     1.58000
O320        O  0.38405575  0.20785287  0.86405974    -0.82500
H321        H  0.28626432  0.29364003  0.68933926    -0.06200
O322        O  0.24585085  0.17232282  0.71232250    -0.87700
H323        H  0.20903703  0.13753411  0.73697027    -0.06000
H324        H  0.35278520  0.19159381  0.64395843    -0.06200
C325        C  0.22137634  0.16516347  0.73589467     0.87400
C326        C  0.28694720  0.27881429  0.71676082     0.87900
C327        C  0.32713843  0.19047031  0.65961787     0.88000
H328        H  0.31758943  0.09700989  0.79911767    -0.06200
O329        O  0.29731129  0.18153761  0.83874774    -0.75200
Mg330      Mg  0.27726007  0.12898142  0.68622359     1.58000
H331        H  0.24516601  0.20230818  0.84387342    -0.06200
C332        C  0.17478378  0.26343559  0.70074288     0.93000
O333        O  0.21266360  0.18615272  0.63002306    -0.82400
C334        C  0.22596000  0.15651558  0.61684457     0.93000
O335        O  0.28471197  0.30898609  0.83313226    -0.82400
Mg336      Mg  0.35703018  0.17217561  0.81728539     1.58200
O337        O  0.18457679  0.23020916  0.69511879    -0.80700
O338        O  0.41662811  0.11795204  0.75599798    -0.82400
N339        N  0.45106597  0.93919506  0.61985171    -0.03200
C340        C  0.43704535  0.97224032  0.63222140    -0.00600
C341        C  0.43409511  0.97267173  0.67169708    -0.23400
C342        C  0.44349342  0.93820615  0.68475658    -0.23700
C343        C  0.45352073  0.91769651  0.65312708    -0.00700
H344        H  0.42109545  0.99403081  0.68848726     0.13100
H345        H  0.44001189  0.92815519  0.71405864     0.13200
O346        O  0.36531727  0.71540466  0.74448320    -0.88000
C347        C  0.32285933  0.70222673  0.85541147     0.88000
Mg348      Mg  0.33094749  0.74078378  0.69829068     1.58100
O349        O  0.34224256  0.62116003  0.80152179    -0.87800
O350        O  0.40442608  0.67223584  0.76418447    -0.75100
C351        C  0.18769936  0.62943245  0.69363420     0.93100
O352        O  0.30572291  0.77035244  0.78369282    -0.74900
O353        O  0.19707363  0.66258838  0.68371220    -0.82400
Mg354      Mg  0.36606978  0.74934146  0.79546962     1.58000
C355        C  0.25583994  0.54484122  0.80724751     0.93000
O356        O  0.42648231  0.73520643  0.81136654    -0.80700
H357        H  0.37578831  0.58683487  0.77373033    -0.06000
C358        C  0.23335398  0.65852292  0.79710063     0.87900
O359        O  0.31916430  0.68271305  0.67164180    -0.75200
O360        O  0.34405015  0.69901554  0.82721385    -0.87900
O361        O  0.28724238  0.55810962  0.81662635    -0.80800
C362        C  0.35802299  0.60160767  0.90053233     0.93100
C363        C  0.43767422  0.72318309  0.84420040     0.92900
Mg364      Mg  0.26141676  0.60576403  0.73981539     1.58000
O365        O  0.20008185  0.61466212  0.72480391    -0.80700
O366        O  0.32335590  0.59022871  0.75089345    -0.74900
O367        O  0.37780038  0.62789257  0.88635790    -0.80800
O368        O  0.39315632  0.79401706  0.75969165    -0.82500
O369        O  0.24855460  0.72693111  0.65213354    -0.80800
C370        C  0.34843213  0.59897421  0.77557454     0.87400
O371        O  0.27796375  0.65638236  0.70840558    -0.87900
O372        O  0.26092994  0.63976016  0.78985765    -0.88000
O373        O  0.22082506  0.68281256  0.77312441    -0.75100
Mg374      Mg  0.38642813  0.65326224  0.82589940     1.58000
O375        O  0.32704288  0.59209244  0.88575696    -0.82500
H376        H  0.40637162  0.69791591  0.71135832    -0.06200
O377        O  0.28473737  0.73572351  0.73696822    -0.87700
H378        H  0.25317762  0.77450730  0.76104049    -0.06000
H379        H  0.29838840  0.63031759  0.66306929    -0.06200
C380        C  0.27975791  0.76056558  0.76048835     0.87400
C381        C  0.39237566  0.69537443  0.73851479     0.87900
C382        C  0.29837260  0.65510141  0.68044089     0.88000
H383        H  0.21976374  0.65431157  0.82430231    -0.06200
O384        O  0.30039289  0.67592805  0.86392176    -0.75200
Mg385      Mg  0.23912480  0.70191403  0.71266422     1.58000
H386        H  0.32320612  0.72772912  0.87169437    -0.06200
C387        C  0.38286858  0.80665272  0.72707489     0.93000
O388        O  0.28999226  0.77144561  0.65746490    -0.82400
C389        C  0.25780556  0.76103055  0.64638418     0.93000
O390        O  0.42797371  0.69092618  0.85605184    -0.82400
Mg391      Mg  0.29374274  0.61712662  0.83708370     1.58200
O392        O  0.34976805  0.79995765  0.71532849    -0.80700
O393        O  0.23975754  0.55616305  0.77639772    -0.82400
N394        N  0.05496098  0.55833733  0.57583797    -0.03200
C395        C  0.08445721  0.58118113  0.58516151    -0.00600
C396        C  0.07469482  0.61851148  0.58267967    -0.23400
C397        C  0.03777831  0.61956974  0.57489602    -0.23700
C398        C  0.02574958  0.58279656  0.57160305    -0.00700
H399        H  0.09136926  0.64215082  0.59201486     0.13100
H400        H  0.02080113  0.64441884  0.57643353     0.13200
N401        N  0.05438162  0.36145059  0.58845344    -0.03200
C402        C  0.08001199  0.35595703  0.61777204    -0.00600
C403        C  0.06408471  0.36016218  0.65318263    -0.23400
C404        C  0.02727570  0.36523408  0.64656650    -0.23700
C405        C  0.02115502  0.36355936  0.60708934    -0.00700
H406        H  0.07686437  0.35391547  0.68105452     0.13100
H407        H  0.00665987  0.36349982  0.66878147     0.13200
O408        O  0.83808856  0.23034047  0.67908338    -0.88000
C409        C  0.84372414  0.12123502  0.71605155     0.88000
Mg410      Mg  0.86509171  0.27646485  0.71377704     1.58100
O411        O  0.75749498  0.16877089  0.70844011    -0.87800
O412        O  0.79711837  0.21133603  0.63619174    -0.75100
C413        C  0.77537339  0.25968920  0.87017516     0.93100
O414        O  0.90658839  0.19433421  0.73189310    -0.74900
O415        O  0.80708834  0.27160010  0.86007035    -0.82400
Mg416      Mg  0.87992417  0.18504717  0.67129246     1.58000
C417        C  0.69040722  0.14939341  0.80712938     0.93000
O418        O  0.86155732  0.17039849  0.61097420    -0.80700
H419        H  0.71541087  0.19335130  0.67920077    -0.06000
C420        C  0.80702201  0.16315364  0.81668991     0.87900
O421        O  0.80714044  0.29531847  0.73293093    -0.75200
O422        O  0.83698380  0.14866245  0.69489215    -0.87900
O423        O  0.70122086  0.13915357  0.77448733    -0.80800
C424        C  0.74002569  0.08049848  0.68217420     0.93100
C425        C  0.85371475  0.13670169  0.60293959     0.92900
Mg426      Mg  0.74649108  0.21765949  0.79657227     1.58000
O427        O  0.76393332  0.22801619  0.85875828    -0.80700
O428        O  0.72255890  0.21085938  0.73429123    -0.74900
O429        O  0.77251416  0.08948865  0.67200026    -0.80800
O430        O  0.91719634  0.22782376  0.64053329    -0.82500
O431        O  0.85517623  0.31136078  0.79971590    -0.80800
C432        C  0.73130694  0.19097519  0.70587283     0.87400
O433        O  0.79101414  0.25242925  0.77486799    -0.87900
O434        O  0.78330927  0.17072700  0.79158304    -0.88000
O435        O  0.83063729  0.18758663  0.82760607    -0.75100
Mg436      Mg  0.78708308  0.14969631  0.65814181     1.58000
O437        O  0.73086211  0.08634958  0.71644819    -0.82500
H438        H  0.81913676  0.26422269  0.63537035    -0.06200
O439        O  0.87010357  0.23406700  0.75901718    -0.87700
H440        H  0.91504426  0.21293886  0.78640103    -0.06000
H441        H  0.75734663  0.29486311  0.75958312    -0.06200
C442        C  0.89781061  0.21381886  0.76054390     0.87400
C443        C  0.81819836  0.23695578  0.64945103     0.87900
C444        C  0.78378351  0.28124116  0.75606936     0.88000
H445        H  0.80776505  0.13530653  0.82950443    -0.06200
O446        O  0.81969695  0.10886547  0.73957706    -0.75200
Mg447      Mg  0.84090713  0.24983733  0.81034494     1.58000
H448        H  0.87024123  0.10733795  0.71433829    -0.06200
C449        C  0.92701456  0.25923731  0.65376017     0.93000
O450        O  0.89621989  0.31615466  0.75393538    -0.82400
C451        C  0.88651944  0.32281480  0.78798882     0.93000
O452        O  0.82211728  0.12375140  0.61184891    -0.82400
Mg453      Mg  0.76016813  0.12772380  0.75551948     1.58200
O454        O  0.92233786  0.26530245  0.68924596    -0.80700
O455        O  0.70320219  0.17873800  0.82254101    -0.82400
N456        N  0.64564321  0.95247560  0.61968603    -0.03200
C457        C  0.64821999  0.98650329  0.63680647    -0.00600
C458        C  0.65435154  0.98224583  0.67614773    -0.23400
C459        C  0.65695688  0.94490957  0.68367266    -0.23700
C460        C  0.65338378  0.92724370  0.64877669    -0.00700
H461        H  0.66054167  0.00399947  0.69659527     0.13100
H462        H  0.66668724  0.93243309  0.71067800     0.13200
O463        O  0.85567607  0.64332691  0.76235522    -0.88000
C464        C  0.80004403  0.65908735  0.65925966     0.88000
Mg465      Mg  0.82723215  0.62430917  0.81335046     1.58100
O466        O  0.83288623  0.73828188  0.70994491    -0.87800
O467        O  0.89603952  0.68302136  0.73974916    -0.75100
C468        C  0.70230622  0.75126247  0.83864452     0.93100
O469        O  0.78146749  0.60004806  0.73462774    -0.74900
O470        O  0.71008963  0.71814234  0.85007995    -0.82400
Mg471      Mg  0.84218858  0.60864251  0.71353136     1.58000
C472        C  0.75022723  0.82015798  0.70877892     0.93000
O473        O  0.89865863  0.60921682  0.68537501    -0.80700
H474        H  0.87361827  0.77310708  0.72682445    -0.06000
C475        C  0.72301620  0.71242891  0.72942069     0.87900
O476        O  0.83160286  0.68358699  0.84037517    -0.75200
O477        O  0.82624615  0.65934630  0.68275406    -0.87900
O478        O  0.78020097  0.80687381  0.69685025    -0.80800
C479        C  0.84188844  0.75766718  0.61327818     0.93100
C480        C  0.91240305  0.62658750  0.65674078     0.92900
Mg481      Mg  0.76633712  0.76527820  0.77818365     1.58000
O482        O  0.70814144  0.76039879  0.80377716    -0.80700
O483        O  0.82600878  0.77701335  0.75702871    -0.74900
O484        O  0.85466947  0.72534631  0.62178927    -0.80800
O485        O  0.86620795  0.55845493  0.74841963    -0.82500
O486        O  0.75971389  0.64916466  0.87432974    -0.80800
C487        C  0.84556281  0.76301130  0.73091460     0.87400
O488        O  0.78698563  0.71319807  0.80856323    -0.87900
O489        O  0.75346418  0.72850824  0.73080797    -0.88000
O490        O  0.71207655  0.69215150  0.75751841    -0.75100
Mg491      Mg  0.87015567  0.70156023  0.68164343     1.58000
O492        O  0.81357481  0.77037377  0.62951522    -0.82500
H493        H  0.90237675  0.65628891  0.79150009    -0.06200
O494        O  0.77469866  0.63531468  0.78463484    -0.87700
H495        H  0.73315658  0.60359967  0.76382951    -0.06000
H496        H  0.81864179  0.73817833  0.84987640    -0.06200
C497        C  0.76169630  0.61283279  0.76132105     0.87400
C498        C  0.88541101  0.66032682  0.76576294     0.87900
C499        C  0.81261413  0.71309076  0.83392328     0.88000
H500        H  0.70526481  0.71590942  0.70415524    -0.06200
O501        O  0.77966353  0.68773242  0.65387138    -0.75200
Mg502      Mg  0.73983617  0.67325057  0.81555818     1.58000
H503        H  0.79410080  0.63395323  0.64335294    -0.06200
C504        C  0.85468232  0.54956864  0.78154659     0.93000
O505        O  0.79472006  0.60095482  0.86148868    -0.82400
C506        C  0.76823922  0.61484052  0.87957921     0.93000
O507        O  0.90610185  0.66118265  0.65066479    -0.82400
Mg508      Mg  0.78131948  0.74711061  0.67896291     1.58200
O509        O  0.82542166  0.56458541  0.79329898    -0.80700
O510        O  0.74042836  0.81229540  0.74262778    -0.82400
N511        N  0.45866700  0.53036558  0.03670420    -0.03200
C512        C  0.45711245  0.54436260  0.07270587    -0.00600
C513        C  0.42712341  0.52794059  0.09126238    -0.23400
C514        C  0.40589002  0.51058806  0.06357936    -0.23700
C515        C  0.42313717  0.51817602  0.02920618    -0.00700
H516        H  0.41683306  0.53532823  0.11915220     0.13100
H517        H  0.37752962  0.50109694  0.06714181     0.13200
N518        N  0.66132327  0.35428488  0.98594557    -0.03200
C519        C  0.68300772  0.35837856  0.01865232    -0.00600
C520        C  0.70857579  0.38675163  0.01230236    -0.23400
C521        C  0.71229285  0.38816326  0.97316422    -0.23700
C522        C  0.68681516  0.36236178  0.95829029    -0.00700
H523        H  0.73037792  0.39521346  0.03231340     0.13100
H524        H  0.73743557  0.39799113  0.95967677     0.13200
N525        N  0.65105231  0.53965679  0.00062040    -0.03200
C526        C  0.65741942  0.54927464  0.03805420    -0.00600
C527        C  0.69105217  0.53523362  0.05133495    -0.23400
C528        C  0.70927188  0.52398149  0.01996734    -0.23700
C529        C  0.68551160  0.52961806  0.98840810    -0.00700
H530        H  0.70470971  0.54150369  0.07855055     0.13100
H531        H  0.73904253  0.52036128  0.02015742     0.13200
N532        N  0.57252732  0.06155963  0.06899391    -0.03200
C533        C  0.54912491  0.09109029  0.06226496    -0.00600
C534        C  0.56922780  0.12287052  0.05268667    -0.23400
C535        C  0.60547234  0.11486134  0.06175328    -0.23700
C536        C  0.60656903  0.07768375  0.07434358    -0.00700
H537        H  0.55826975  0.15100106  0.04972824     0.13100
H538        H  0.62694290  0.13584662  0.06600988     0.13200
N539        N  0.14062970  0.45063772  0.11762244    -0.03200
C540        C  0.13801919  0.41978853  0.14098374    -0.00600
C541        C  0.13421478  0.43041056  0.17883004    -0.23400
C542        C  0.13852418  0.46840384  0.17923736    -0.23700
C543        C  0.14806492  0.47935330  0.14230946    -0.00700
H544        H  0.13501697  0.41224475  0.20414753     0.13100
H545        H  0.14478069  0.48371397  0.20514081     0.13200
N546        N  0.16753785  0.02636462  0.49999782    -0.03200
C547        C  0.17306471  0.03389006  0.53774518    -0.00600
C548        C  0.20313450  0.01335567  0.55205482    -0.23400
C549        C  0.22173786  0.00164401  0.52058473    -0.23700
C550        C  0.20261990  0.01713065  0.48926483    -0.00700
H551        H  0.21568163  0.01530395  0.58054080     0.13100
H552        H  0.25011281  0.99171913  0.52113299     0.13200
N553        N  0.11859981  0.93314830  0.50483387    -0.36300
N554        N  0.05629755  0.88062271  0.50965875    -0.56800
N555        N  0.00411664  0.94457361  0.49991416    -0.36300
N556        N  0.06667662  0.99621578  0.49479657    -0.56800
C557        C  0.13615590  0.89986754  0.49997724     0.27300
C558        C  0.14132439  0.96076824  0.49090698     0.27300
C559        C  0.98312387  0.91651031  0.51539883     0.27300
C560        C  0.98769537  0.97762668  0.50856417     0.27300
C561        C  0.08415811  0.85490063  0.50977481     0.35900
C562        C  0.02362799  0.86148164  0.50572869     0.35900
C563        C  0.09928796  0.01569262  0.49590677     0.35900
C564        C  0.03895717  0.02201567  0.49535500     0.35900
C565        C  0.16957098  0.90644857  0.48218582    -0.21600
C566        C  0.17239950  0.94408014  0.47563440    -0.21600
C567        C  0.95475191  0.93259296  0.53599872    -0.21600
C568        C  0.95713243  0.97071137  0.53078627    -0.21600
C569        C  0.06896938  0.81953623  0.50610580    -0.22600
C570        C  0.03099534  0.82371707  0.50282747    -0.22600
C571        C  0.09209474  0.05352029  0.49744139    -0.22600
C572        C  0.05438793  0.05758728  0.49698720    -0.22600
C573        C  0.12304922  0.86307366  0.50937728    -0.18000
C574        C  0.13570834  0.00051255  0.49398508    -0.18000
C575        C  0.00006920  0.01409906  0.49815987    -0.18000
C576        C  0.98730048  0.87713906  0.50820529    -0.18000
H577        H  0.18930023  0.88627159  0.47243855     0.14900
H578        H  0.19467879  0.95653379  0.45946873     0.14900
H579        H  0.93460762  0.91885651  0.55412891     0.14900
H580        H  0.93969715  0.99095784  0.54411407     0.14900
H581        H  0.08364078  0.79348568  0.50455275     0.13200
H582        H  0.01130496  0.80128218  0.49926707     0.13200
H583        H  0.11169573  0.07621931  0.49897749     0.13200
H584        H  0.04071468  0.08404912  0.49978172     0.13200
H585        H  0.09440561  0.93704966  0.52016986     0.26500
H586        H  0.02602033  0.94112349  0.48112860     0.26500
N587        N  0.56171188  0.95980745  0.04967818    -0.36300
N588        N  0.56638735  0.00638852  0.97816583    -0.56800
N589        N  0.56575074  0.93849593  0.93379536    -0.36300
N590        N  0.55439918  0.89213050  0.00354053    -0.56800
C591        C  0.55259470  0.99545721  0.05892132     0.27300
C592        C  0.54002542  0.93612675  0.07079234     0.27300
C593        C  0.56062917  0.96457810  0.90480498     0.27300
C594        C  0.56117830  0.90390523  0.91859645     0.27300
C595        C  0.57877064  0.03105478  0.00474729     0.35900
C596        C  0.57498915  0.02089041  0.94307649     0.35900
C597        C  0.55177889  0.87614884  0.03929876     0.35900
C598        C  0.56031872  0.86403844  0.97853464     0.35900
C599        C  0.52400481  0.99465353  0.08459442    -0.21600
C600        C  0.51516464  0.95758204  0.09092624    -0.21600
C601        C  0.55321815  0.94549326  0.87115236    -0.21600
C602        C  0.55360574  0.90810971  0.87968602    -0.21600
C603        C  0.59607870  0.06091093  0.98599007    -0.22600
C604        C  0.59331869  0.05457174  0.94721892    -0.22600
C605        C  0.55507352  0.83777627  0.03640765    -0.22600
C606        C  0.55985236  0.83009950  0.99816584    -0.22600
C607        C  0.56955395  0.02861354  0.04452399    -0.18000
C608        C  0.54408855  0.89599755  0.07355485    -0.18000
C609        C  0.56460722  0.86829076  0.93804147    -0.18000
C610        C  0.56522081  0.00467191  0.90741195    -0.18000
H611        H  0.50976679  0.01825099  0.09631270     0.14900
H612        H  0.49135545  0.94827243  0.10680271     0.14900
H613        H  0.54901471  0.95566006  0.84239003     0.14900
H614        H  0.54824488  0.88695928  0.85868989     0.14900
H615        H  0.60937991  0.08516932  0.99779528     0.13200
H616        H  0.60399191  0.07270368  0.92474906     0.13200
H617        H  0.55392531  0.81712622  0.05892452     0.13200
H618        H  0.56180884  0.80253857  0.98612314     0.13200
H619        H  0.58397586  0.95222483  0.03271715     0.26500
H620        H  0.57514437  0.94346660  0.96202887     0.26500
N621        N  0.10902179  0.44996498  0.01558695    -0.36300
N622        N  0.04633689  0.46004124  0.06687530    -0.56800
N623        N  0.99685676  0.45795097  0.99987145    -0.36300
N624        N  0.05998273  0.45389219  0.94718178    -0.56800
C625        C  0.12499867  0.46295174  0.04856878     0.27300
C626        C  0.13170696  0.45940687  0.98605799     0.27300
C627        C  0.97690256  0.47454313  0.02751661     0.27300
C628        C  0.98491712  0.47197730  0.96521801     0.27300
C629        C  0.07352315  0.45072417  0.09302432     0.35900
C630        C  0.01306969  0.45395932  0.08400550     0.35900
C631        C  0.09104103  0.43852315  0.93278040     0.35900
C632        C  0.03089403  0.44373635  0.92407363     0.35900
C633        C  0.15719987  0.48211221  0.04001384    -0.21600
C634        C  0.16100900  0.48082790  0.00080835    -0.21600
C635        C  0.95358065  0.50100098  0.01029759    -0.21600
C636        C  0.95870185  0.49949411  0.97123937    -0.21600
C637        C  0.05676016  0.43936463  0.12705877    -0.22600
C638        C  0.01895119  0.44069859  0.12097499    -0.22600
C639        C  0.08157094  0.41823590  0.90048250    -0.22600
C640        C  0.04356166  0.42167042  0.89484291    -0.22600
C641        C  0.11271494  0.45494981  0.08630198    -0.18000
C642        C  0.12760006  0.44521462  0.94763048    -0.18000
C643        C  0.99367891  0.45584234  0.92915874    -0.18000
C644        C  0.97792350  0.46338649  0.06724580    -0.18000
H645        H  0.17619884  0.49562092  0.05987548     0.14900
H646        H  0.18297687  0.49507185  0.98565247     0.14900
H647        H  0.93482677  0.51984868  0.02400682     0.14900
H648        H  0.94412148  0.51661683  0.94992693     0.14900
H649        H  0.06907478  0.43100947  0.15414740     0.13200
H650        H  0.99847243  0.43309357  0.14179760     0.13200
H651        H  0.09970839  0.40168920  0.88340737     0.13200
H652        H  0.02735026  0.40871408  0.87225657     0.13200
H653        H  0.08633726  0.43164207  0.01400322     0.26500
H654        H  0.01420966  0.43479463  0.00409134     0.26500
N655        N  0.61507371  0.44487321  0.99766278    -0.36300
N656        N  0.56124260  0.38237996  0.00122671    -0.56800
N657        N  0.50227657  0.43847947  0.01353466    -0.36300
N658        N  0.55456839  0.50008952  0.00911814    -0.56800
C659        C  0.62909995  0.41689132  0.97645584     0.27300
C660        C  0.62512360  0.47763300  0.98004870     0.27300
C661        C  0.48934124  0.40485781  0.02695797     0.27300
C662        C  0.48669589  0.46563258  0.03496491     0.27300
C663        C  0.59134542  0.36218714  0.99120454     0.35900
C664        C  0.53092370  0.35984233  0.99737234     0.35900
C665        C  0.58330476  0.52438630  0.00526253     0.35900
C666        C  0.52448029  0.52073190  0.01763965     0.35900
C667        C  0.64508130  0.43211229  0.94385438    -0.21600
C668        C  0.64334872  0.47027731  0.94646635    -0.21600
C669        C  0.46723508  0.41081664  0.05829920    -0.21600
C670        C  0.46600992  0.44865833  0.06358701    -0.21600
C671        C  0.58012532  0.32671782  0.98068128    -0.22600
C672        C  0.54185079  0.32553035  0.98373584    -0.22600
C673        C  0.57141025  0.56061317  0.01072453    -0.22600
C674        C  0.53412110  0.55828442  0.01857269    -0.22600
C675        C  0.62720481  0.37773135  0.98534530    -0.18000
C676        C  0.61940061  0.51409408  0.99435866    -0.18000
C677        C  0.48987702  0.50534770  0.02859619    -0.18000
C678        C  0.49449802  0.36942369  0.00923343    -0.18000
H679        H  0.65526344  0.41725205  0.91963304     0.14900
H680        H  0.65294838  0.49007931  0.92500046     0.14900
H681        H  0.45335700  0.39032713  0.07614505     0.14900
H682        H  0.45281488  0.46137136  0.08745490     0.14900
H683        H  0.59701906  0.30508551  0.96893069     0.13200
H684        H  0.52444204  0.30209205  0.97638578     0.13200
H685        H  0.58743240  0.58618107  0.00811073     0.13200
H686        H  0.51687967  0.58153018  0.02576682     0.13200
H687        H  0.60219100  0.44188921  0.02420951     0.26500
H688        H  0.51752774  0.44265940  0.98856934     0.26500
N689        N  0.05836811  0.45800134  0.54192384    -0.36300
N690        N  0.06227888  0.39648469  0.48651734    -0.56800
N691        N  0.06278154  0.45196330  0.42367919    -0.36300
N692        N  0.05831593  0.51271960  0.47922378    -0.56800
C693        C  0.06311898  0.42833838  0.56673407     0.27300
C694        C  0.06309675  0.49006380  0.56234212     0.27300
C695        C  0.05251365  0.41988906  0.40569515     0.27300
C696        C  0.05028416  0.48134267  0.40154642     0.27300
C697        C  0.06825259  0.37651849  0.51973152     0.35900
C698        C  0.07157773  0.37411206  0.45702225     0.35900
C699        C  0.06014058  0.53715582  0.50859834     0.35900
C700        C  0.06138268  0.53339949  0.44632046     0.35900
C701        C  0.07133235  0.44222736  0.60303020    -0.21600
C702        C  0.07214767  0.48062663  0.59995395    -0.21600
C703        C  0.03132605  0.42996199  0.37296771    -0.21600
C704        C  0.03105393  0.46838372  0.36989730    -0.21600
C705        C  0.08241202  0.34174042  0.51135152    -0.22600
C706        C  0.08459496  0.34023534  0.47178830    -0.22600
C707        C  0.06483328  0.57319673  0.49401784    -0.22600
C708        C  0.06567122  0.57084271  0.45502626    -0.22600
C709        C  0.06153773  0.38914009  0.55758216    -0.18000
C710        C  0.05893220  0.52774509  0.54855411    -0.18000
C711        C  0.05668566  0.51968714  0.40847343    -0.18000
C712        C  0.06475404  0.38265306  0.41719225    -0.18000
H713        H  0.07792583  0.42714136  0.62929381     0.14900
H714        H  0.07864553  0.49941392  0.62305919     0.14900
H715        H  0.01604284  0.41230231  0.35334528     0.14900
H716        H  0.01718393  0.48493328  0.34753518     0.14900
H717        H  0.09055599  0.31981729  0.53167973     0.13200
H718        H  0.09431554  0.31669508  0.45591317     0.13200
H719        H  0.06837350  0.59895848  0.50921092     0.13200
H720        H  0.06858901  0.59468325  0.43588397     0.13200
H721        H  0.04900153  0.45617739  0.51359006     0.26500
H722        H  0.08090687  0.45383636  0.44739603     0.26500
N723        N  0.60606060  0.95321066  0.52155843    -0.36300
N724        N  0.54785887  0.94051924  0.57959154    -0.56800
N725        N  0.48964168  0.94900219  0.51987545    -0.36300
N726        N  0.54821047  0.95283529  0.46091195    -0.56800
C727        C  0.62569073  0.94006565  0.55250147     0.27300
C728        C  0.62559525  0.94565913  0.48962456     0.27300
C729        C  0.46812316  0.93982525  0.55036161     0.27300
C730        C  0.46886273  0.94457481  0.48705598     0.27300
C731        C  0.57823711  0.94766723  0.60240159     0.35900
C732        C  0.51748996  0.94468530  0.60186444     0.35900
C733        C  0.57806749  0.97047068  0.44529616     0.35900
C734        C  0.51740441  0.96770628  0.44351747     0.35900
C735        C  0.65797598  0.92354991  0.54039925    -0.21600
C736        C  0.65763278  0.92655966  0.50060053    -0.21600
C737        C  0.43272182  0.93149556  0.53664327    -0.21600
C738        C  0.43351872  0.93311625  0.49695272    -0.21600
C739        C  0.56691112  0.95548625  0.63917209    -0.22600
C740        C  0.52897236  0.95412572  0.63869002    -0.22600
C741        C  0.56605045  0.99771548  0.41913701    -0.22600
C742        C  0.52795197  0.99561572  0.41756413    -0.22600
C743        C  0.61619915  0.94579719  0.59113492    -0.18000
C744        C  0.61553015  0.95841703  0.45179531    -0.18000
C745        C  0.48042760  0.95364318  0.44890328    -0.18000
C746        C  0.47938637  0.93987193  0.59006630    -0.18000
H747        H  0.67939347  0.91055981  0.55831666     0.14900
H748        H  0.67858295  0.91579543  0.48226148     0.14900
H749        H  0.40864759  0.92468052  0.55328703     0.14900
H750        H  0.41028700  0.92742828  0.47793973     0.14900
H751        H  0.58363882  0.96180686  0.66426756     0.13200
H752        H  0.51220192  0.96053112  0.66299519     0.13200
H753        H  0.58271064  0.01737873  0.40279629     0.13200
H754        H  0.51044941  0.01306216  0.39922458     0.13200
H755        H  0.58252229  0.97004770  0.52268187     0.26500
H756        H  0.51629380  0.96026084  0.52145005     0.26500
C757        C  0.70580951  0.59178409  0.90203747    -0.01500
C758        C  0.74519671  0.58924897  0.90372265     0.08200
C759        C  0.76128576  0.55737827  0.92232125    -0.01600
C760        C  0.73869986  0.53206522  0.94274439    -0.01600
C761        C  0.70147104  0.54122381  0.95019318     0.08300
C762        C  0.68390577  0.56763846  0.92511034    -0.01800
Br763      Br  0.63038048  0.56845520  0.91842036    -0.00400
Br764      Br  0.68113318  0.62565570  0.86579348    -0.00500
Br765      Br  0.75729270  0.48277711  0.95647805    -0.00400
Br766      Br  0.81418908  0.54779990  0.92173935    -0.00400
C767        C  0.66239729  0.86002145  0.66217715    -0.01500
C768        C  0.67619357  0.89314120  0.64523893     0.08200
C769        C  0.71516943  0.89759086  0.64188485    -0.01600
C770        C  0.73980704  0.87248320  0.66069523    -0.01600
C771        C  0.72550556  0.84268921  0.68300120     0.08300
C772        C  0.68686462  0.83486056  0.68121437    -0.01800
Br773      Br  0.66685553  0.79019624  0.70526907    -0.00400
Br774      Br  0.60937494  0.85198632  0.66318264    -0.00500
Br775      Br  0.79285911  0.88177345  0.65943137    -0.00400
Br776      Br  0.73555416  0.94110421  0.61705274    -0.00400
C777        C  0.72241172  0.34699807  0.89867186    -0.01500
C778        C  0.70155898  0.33399719  0.93052054     0.08200
C779        C  0.70179420  0.29471236  0.93900454    -0.01600
C780        C  0.72728558  0.27090393  0.92099250    -0.01600
C781        C  0.75007299  0.28482008  0.89138907     0.08300
C782        C  0.74580690  0.32259801  0.87900411    -0.01800
Br783      Br  0.77049557  0.34132089  0.83353357    -0.00400
Br784      Br  0.71869164  0.39846053  0.88048598    -0.00500
Br785      Br  0.73285143  0.21960554  0.93906098    -0.00400
Br786      Br  0.66703158  0.27141549  0.97356150    -0.00400
C787        C  0.67353864  0.07489612  0.65782399    -0.01500
C788        C  0.71173711  0.06542193  0.65435033     0.08200
C789        C  0.72138051  0.04291776  0.62296221    -0.01600
C790        C  0.69277086  0.02476431  0.60195573    -0.01600
C791        C  0.65701896  0.02278617  0.61716448     0.08300
C792        C  0.64615603  0.05417763  0.63765580    -0.01800
Br793      Br  0.59399162  0.06122411  0.64581075    -0.00400
Br794      Br  0.65810927  0.11591629  0.68894160    -0.00500
Br795      Br  0.70061110  0.00601023  0.55148294    -0.00400
Br796      Br  0.77224834  0.03545323  0.60886548    -0.00400
C797        C  0.98407305  0.31155124  0.57736545    -0.01500
C798        C  0.98454698  0.34740980  0.59348201     0.08200
C799        C  0.95344012  0.35633643  0.61537974    -0.01600
C800        C  0.93273470  0.32738140  0.63317105    -0.01600
C801        C  0.94261298  0.28942507  0.62796143     0.08300
C802        C  0.96506415  0.28171066  0.59605056    -0.01800
Br803      Br  0.96989539  0.23156085  0.57702518    -0.00400
Br804      Br  0.00237831  0.30558224  0.52649863    -0.00500
Br805      Br  0.88933312  0.34011874  0.66148244    -0.00400
Br806      Br  0.94429238  0.40805839  0.62640535    -0.00400
C807        C  0.93441275  0.61699245  0.58924382    -0.01500
C808        C  0.93471413  0.60562673  0.62867608     0.08200
C809        C  0.95360430  0.57201721  0.63913728    -0.01600
C810        C  0.97660959  0.55511754  0.61230699    -0.01600
C811        C  0.98566865  0.57436551  0.57815432     0.08300
C812        C  0.96012839  0.60144730  0.56418332    -0.01800
Br813      Br  0.96541476  0.62184230  0.51281670    -0.00400
Br814      Br  0.89830465  0.65226170  0.56828506    -0.00500
Br815      Br  0.99033710  0.50377445  0.61939485    -0.00400
Br816      Br  0.94969780  0.54835587  0.68945785    -0.00400
C817        C  0.37121789  0.56107783  0.00124088    -0.01500
C818        C  0.40105266  0.53506554  0.99593012     0.08200
C819        C  0.41372141  0.52990819  0.95819873    -0.01600
C820        C  0.40082998  0.55306651  0.92758151    -0.01600
C821        C  0.37271043  0.57942413  0.93346459     0.08300
C822        C  0.35684372  0.58224992  0.96966979    -0.01800
Br823      Br  0.31641660  0.61710788  0.97579752    -0.00400
Br824      Br  0.35003071  0.57181699  0.05065071    -0.00500
Br825      Br  0.42169180  0.54868507  0.87709851    -0.00400
Br826      Br  0.44702833  0.48960658  0.94730301    -0.00400
C827        C  0.10565754  0.57403190  0.65334492    -0.01500
C828        C  0.11454625  0.57290112  0.61379951     0.08200
C829        C  0.15062125  0.58338725  0.60282094    -0.01600
C830        C  0.17489715  0.60110404  0.62920507    -0.01600
C831        C  0.16378781  0.60693997  0.66740643     0.08300
C832        C  0.13036910  0.59072021  0.68008089    -0.01800
Br833      Br  0.11641378  0.59520780  0.73313637    -0.00400
Br834      Br  0.05702240  0.55945120  0.67026543    -0.00500
Br835      Br  0.22294793  0.61834418  0.61241618    -0.00400
Br836      Br  0.16394379  0.57889943  0.54963503    -0.00400
C837        C  0.42773795  0.85419704  0.63965009    -0.01500
C838        C  0.45532861  0.87601563  0.65770166     0.08200
C839        C  0.46828208  0.86321082  0.69410335    -0.01600
C840        C  0.44447269  0.84194822  0.71792847    -0.01600
C841        C  0.41035157  0.82753704  0.70241169     0.08300
C842        C  0.40558046  0.82942237  0.66173682    -0.01800
Br843      Br  0.37329432  0.79471969  0.63518034    -0.00400
Br844      Br  0.42469089  0.85372316  0.58467974    -0.00500
Br845      Br  0.45951847  0.83531612  0.77136938    -0.00400
Br846      Br  0.51478984  0.88306331  0.71374178    -0.00400
C847        C  0.16330550  0.07489605  0.59296979    -0.01500
C848        C  0.16902233  0.07232900  0.55330006     0.08200
C849        C  0.18349108  0.10418556  0.53334011    -0.01600
C850        C  0.20187742  0.13248772  0.55409078    -0.01600
C851        C  0.20201357  0.13114648  0.59438638     0.08300
C852        C  0.17999696  0.10415414  0.61365602    -0.01800
Br853      Br  0.17495044  0.10534773  0.66855661    -0.00400
Br854      Br  0.13439193  0.03659365  0.61859618    -0.00500
Br855      Br  0.22824502  0.17220088  0.52768332    -0.00400
Br856      Br  0.17548860  0.11229879  0.47888024    -0.00400
C857        C  0.10428801  0.29123739  0.62282690    -0.01500
C858        C  0.11206316  0.32992344  0.61792238     0.08200
C859        C  0.14578879  0.34380101  0.63325437    -0.01600
C860        C  0.16725524  0.32164516  0.65928503    -0.01600
C861        C  0.15509299  0.28515083  0.66982799     0.08300
C862        C  0.12507565  0.26908913  0.64929564    -0.01800
Br863      Br  0.10963672  0.21793823  0.66006817    -0.00400
Br864      Br  0.06226579  0.26915849  0.59749638    -0.00500
Br865      Br  0.21320870  0.34155420  0.68012501    -0.00400
Br866      Br  0.15979075  0.39490245  0.62178228    -0.00400
C867        C  0.37370004  0.98940454  0.61422436    -0.01500
C868        C  0.41202346  0.99770525  0.61037483     0.08200
C869        C  0.42332934  0.03535384  0.61120158    -0.01600
C870        C  0.40063595  0.06167331  0.62887507    -0.01600
C871        C  0.36479280  0.05096041  0.64105014     0.08300
C872        C  0.34996967  0.01618445  0.62982590    -0.01800
Br873      Br  0.29898822  0.00333495  0.64058489    -0.00400
Br874      Br  0.35655132  0.93835804  0.61019761    -0.00500
Br875      Br  0.41953840  0.11141896  0.63843281    -0.00400
Br876      Br  0.47340137  0.04779558  0.59699054    -0.00400
C877        C  0.40716111  0.29968912  0.87900653    -0.01500
C878        C  0.39778721  0.26480226  0.89625454     0.08200
C879        C  0.41573928  0.25387006  0.93100598    -0.01600
C880        C  0.43893895  0.27949719  0.95091906    -0.01600
C881        C  0.44371443  0.31684028  0.93617958     0.08300
C882        C  0.43168550  0.32443527  0.89790054    -0.01800
Br883      Br  0.44931246  0.36894920  0.87120285    -0.00400
Br884      Br  0.38626507  0.31450903  0.82952463    -0.00500
Br885      Br  0.46422326  0.26119347  0.99700379    -0.00400
Br886      Br  0.40609688  0.20462434  0.95278543    -0.00400
C887        C  0.64118806  0.58511259  0.09447039    -0.01500
C888        C  0.64759150  0.58604250  0.05468996     0.08200
C889        C  0.66390887  0.61897164  0.03882708    -0.01600
C890        C  0.68395228  0.64357093  0.06266764    -0.01600
C891        C  0.68533805  0.63645711  0.10232585     0.08300
C892        C  0.66114678  0.60958230  0.11862025    -0.01800
Br893      Br  0.65827582  0.60394225  0.17370970    -0.00400
Br894      Br  0.61082399  0.54551271  0.11555125    -0.00500
Br895      Br  0.71124811  0.68558251  0.04144149    -0.00400
Br896      Br  0.65984493  0.63074453  0.98521716    -0.00400
C897        C  0.96566292  0.59454834  0.29476614    -0.01500
C898        C  0.93896053  0.61150045  0.31763127     0.08200
C899        C  0.93601104  0.60021941  0.35676010    -0.01600
C900        C  0.96350864  0.57713057  0.37396643    -0.01600
C901        C  0.99378470  0.56581417  0.35248337     0.08300
C902        C  0.99156094  0.56984746  0.31197395    -0.01800
Br903      Br  0.02902292  0.54836813  0.28089033    -0.00400
Br904      Br  0.97097764  0.60938446  0.24140748    -0.00500
Br905      Br  0.96290878  0.56417872  0.42786540    -0.00400
Br906      Br  0.89523215  0.61683366  0.38723109    -0.00400
C907        C  0.70093066  0.89740465  0.39730779    -0.01500
C908        C  0.66242576  0.88816078  0.40022085     0.08200
C909        C  0.65059828  0.85247014  0.38829510    -0.01600
C910        C  0.67353367  0.83091512  0.36528234    -0.01600
C911        C  0.70939266  0.84401236  0.35565805     0.08300
C912        C  0.72405768  0.87565674  0.37420664    -0.01800
Br913      Br  0.77467589  0.89118649  0.36501270    -0.00400
Br914      Br  0.72351462  0.93888757  0.42406028    -0.00500
Br915      Br  0.65524441  0.78349113  0.34673407    -0.00400
Br916      Br  0.60172019  0.83440935  0.40184438    -0.00400
C917        C  0.63647127  0.07936081  0.17673695    -0.01500
C918        C  0.66990704  0.09936818  0.17151251     0.08200
C919        C  0.68823058  0.09619006  0.13612286    -0.01600
C920        C  0.66946294  0.08097174  0.10415365    -0.01600
C921        C  0.63249707  0.06852236  0.10738175     0.08300
C922        C  0.61861820  0.06235574  0.14487881    -0.01800
Br923      Br  0.57481495  0.03250787  0.15326159    -0.00400
Br924      Br  0.61318825  0.07838966  0.22628489    -0.00500
Br925      Br  0.69251490  0.08073946  0.05450583    -0.00400
Br926      Br  0.73921117  0.11139187  0.13089678    -0.00400
C927        C  0.68675440  0.27648853  0.09250064    -0.01500
C928        C  0.72398138  0.26444487  0.09029208     0.08200
C929        C  0.74660288  0.27988251  0.06167216    -0.01600
C930        C  0.73393936  0.30986145  0.03797065    -0.01600
C931        C  0.69706662  0.32463231  0.04200812     0.08300
C932        C  0.67353661  0.30657718  0.06882609    -0.01800
Br933      Br  0.62381710  0.32474943  0.07550378    -0.00400
Br934      Br  0.65424026  0.25309881  0.12945554    -0.00500
Br935      Br  0.76979235  0.32877558  0.00141689    -0.00400
Br936      Br  0.79567868  0.25890379  0.05507581    -0.00400
C937        C  0.72086911  0.00204024  0.32274963    -0.01500
C938        C  0.73412899  0.03440320  0.34079509     0.08200
C939        C  0.71763355  0.04581638  0.37518225    -0.01600
C940        C  0.68679888  0.02598787  0.39029776    -0.01600
C941        C  0.67183144  0.99453330  0.37119826     0.08300
C942        C  0.69014880  0.98206484  0.33744788    -0.01800
Br943      Br  0.67581738  0.93730460  0.30998563    -0.00400
Br944      Br  0.74596446  0.98475544  0.27767789    -0.00500
Br945      Br  0.66414675  0.04300454  0.43657659    -0.00400
Br946      Br  0.73570645  0.09026704  0.40034819    -0.00400
C947        C  0.21220198  0.56453567  0.13726692    -0.01500
C948        C  0.24451965  0.55113213  0.15665743     0.08200
C949        C  0.24758705  0.51292503  0.16562355    -0.01600
C950        C  0.21729426  0.48857956  0.15884521    -0.01600
C951        C  0.18360986  0.50202853  0.14072227     0.08300
C952        C  0.18230858  0.53994241  0.12846123    -0.01800
Br953      Br  0.13814365  0.55893136  0.10264145    -0.00400
Br954      Br  0.20760477  0.61745967  0.12624183    -0.00500
Br955      Br  0.22244649  0.43862021  0.18032743    -0.00400
Br956      Br  0.29246040  0.49513851  0.19164285    -0.00400
C957        C  0.42059081  0.63953938  0.07231223    -0.01500
C958        C  0.42088880  0.64342185  0.11240289     0.08200
C959        C  0.44798543  0.62407827  0.13497864    -0.01600
C960        C  0.46873508  0.59534875  0.11858743    -0.01600
C961        C  0.46164564  0.58539457  0.08021347     0.08300
C962        C  0.44284048  0.61187485  0.05594020    -0.01800
Br963      Br  0.44983748  0.61296211  0.00120471    -0.00400
Br964      Br  0.38931734  0.67151816  0.04040218    -0.00500
Br965      Br  0.50385750  0.56631521  0.14898986    -0.00400
Br966      Br  0.45433950  0.63436260  0.18890028    -0.00400
C967        C  0.14376996  0.56285759  0.29356562    -0.01500
C968        C  0.16732988  0.59148220  0.30806827     0.08200
C969        C  0.17749124  0.58968243  0.34776681    -0.01600
C970        C  0.15629847  0.56751023  0.37314067    -0.01600
C971        C  0.12534876  0.54804730  0.35862243     0.08300
C972        C  0.12642208  0.53819065  0.31984956    -0.01800
Br973      Br  0.10280364  0.49252607  0.30404163    -0.00400
Br974      Br  0.13280882  0.55846121  0.23935104    -0.00500
Br975      Br  0.16200812  0.57197203  0.42796815    -0.00400
Br976      Br  0.22085070  0.61484679  0.36771128    -0.00400
C977        C  0.42266823  0.84573857  0.39640435    -0.01500
C978        C  0.41975550  0.88458372  0.40248792     0.08200
C979        C  0.38472590  0.90174137  0.39365490    -0.01600
C980        C  0.35724074  0.88238237  0.37175699    -0.01600
C981        C  0.36389397  0.84579152  0.35930893     0.08300
C982        C  0.39615362  0.82706055  0.37322757    -0.01800
Br983      Br  0.40538466  0.77593900  0.35982270    -0.00400
Br984      Br  0.46343136  0.81810228  0.42022042    -0.00500
Br985      Br  0.31146652  0.90683845  0.35621120    -0.00400
Br986      Br  0.37190740  0.95035393  0.41239277    -0.00400
C987        C  0.20732650  0.04308043  0.42138698    -0.01500
C988        C  0.22285111  0.03997186  0.45913451     0.08200
C989        C  0.25488881  0.06268275  0.46845174    -0.01600
C990        C  0.26989536  0.08754502  0.44061221    -0.01600
C991        C  0.25379312  0.09027964  0.40369175     0.08300
C992        C  0.22294950  0.06772860  0.39395547    -0.01800
Br993      Br  0.20251419  0.07015530  0.34203089    -0.00400
Br994      Br  0.16391781  0.01458844  0.40625915    -0.00500
Br995      Br  0.31164938  0.11981569  0.45306301    -0.00400
Br996      Br  0.27792836  0.06437990  0.51934159    -0.00400
C997        C  0.48877371  0.12131364  0.14551264    -0.01500
C998        C  0.45332640  0.11198550  0.13146857     0.08200
C999        C  0.44896639  0.09518007  0.09521625    -0.01600
C1000       C  0.48040846  0.08707304  0.07328118    -0.01600
C1001       C  0.51622558  0.09687478  0.08694147     0.08300
C1002       C  0.52002296  0.11520657  0.12301271    -0.01800
Br1003     Br  0.56626609  0.13678796  0.14136507    -0.00400
Br1004     Br  0.49377202  0.14500364  0.19502562    -0.00500
Br1005     Br  0.47440821  0.06502019  0.02328095    -0.00400
Br1006     Br  0.39972684  0.08519658  0.07484102    -0.00400
C1007       C  0.14082081  0.35146305  0.15397862    -0.01500
C1008       C  0.15459461  0.38251104  0.13312085     0.08200
C1009       C  0.19067868  0.38003735  0.11781176    -0.01600
C1010       C  0.21579187  0.35284673  0.13276234    -0.01600
C1011       C  0.20393666  0.32694385  0.16140931     0.08300
C1012       C  0.16532335  0.32376776  0.16827452    -0.01800
Br1013     Br  0.14516457  0.28129723  0.19641069    -0.00400
Br1014     Br  0.08859512  0.34890468  0.16544223    -0.00500
Br1015     Br  0.26668939  0.35384701  0.11580882    -0.00400
Br1016     Br  0.20764006  0.41525554  0.07926007    -0.00400
C1017       C  0.37175475  0.30707123  0.01890488    -0.01500
C1018       C  0.40616775  0.32049856  0.03555667     0.08200
C1019       C  0.41897095  0.30341769  0.07041088    -0.01600
C1020       C  0.39676258  0.27666136  0.08992959    -0.01600
C1021       C  0.36210301  0.26505877  0.07417252     0.08300
C1022       C  0.35020156  0.27978354  0.03839801    -0.01800
Br1023     Br  0.30406626  0.26144208  0.01588151    -0.00400
Br1024     Br  0.35282410  0.32274246  0.96853888    -0.00500
Br1025     Br  0.41301705  0.25807903  0.13996625    -0.00400
Br1026     Br  0.46749133  0.31555909  0.09163997    -0.00400
C1027       C  0.39875635  0.98691548  0.29598579    -0.01500
C1028       C  0.38905128  0.02314872  0.30665936     0.08200
C1029       C  0.40231793  0.03715131  0.34215115    -0.01600
C1030       C  0.42568454  0.01526679  0.36654599    -0.01600
C1031       C  0.43824555  0.97988689  0.35474232     0.08300
C1032       C  0.42306420  0.96515997  0.31955848    -0.01800
Br1033     Br  0.43113361  0.91425607  0.30322810    -0.00400
Br1034     Br  0.37672312  0.96650107  0.24956456    -0.00500
Br1035     Br  0.43807728  0.03361289  0.41717749    -0.00400
Br1036     Br  0.39051302  0.08756152  0.35680206    -0.00400
C1037       C  0.00730337  0.27706441  0.29606594    -0.01500
C1038       C  0.97489232  0.27130988  0.31701528     0.08200
C1039       C  0.96921042  0.29164005  0.35069515    -0.01600
C1040       C  0.99446610  0.31995279  0.36170281    -0.01600
C1041       C  0.02674984  0.32726392  0.33999085     0.08300
C1042       C  0.03358357  0.30422687  0.30756896    -0.01800
Br1043     Br  0.07925851  0.30607079  0.27898907    -0.00400
Br1044     Br  0.01592185  0.24605520  0.25209561    -0.00500
Br1045     Br  0.98318856  0.34875387  0.40629647    -0.00400
Br1046     Br  0.92556427  0.28197127  0.38108368    -0.00400
C1047       C  0.12972352  0.25170584  0.35250270    -0.01500
C1048       C  0.16621061  0.25716759  0.33969693     0.08200
C1049       C  0.18647457  0.28871060  0.35244921    -0.01600
C1050       C  0.16849578  0.31750668  0.37192943    -0.01600
C1051       C  0.12996331  0.31540334  0.37846937     0.08300
C1052       C  0.11215243  0.28000844  0.37348294    -0.01800
Br1053     Br  0.06626075  0.26757564  0.39839242    -0.00400
Br1054     Br  0.10337559  0.20629420  0.33958577    -0.00500
Br1055     Br  0.19604652  0.36092755  0.38873705    -0.00400
Br1056     Br  0.23900883  0.29257858  0.34310469    -0.00400
C1057       C  0.45127192  0.78502664  0.87486282    -0.01500
C1058       C  0.46143606  0.74734467  0.86891656     0.08200
C1059       C  0.49403674  0.73331511  0.88708310    -0.01600
C1060       C  0.51855668  0.75807650  0.90606619    -0.01600
C1061       C  0.51193892  0.79712557  0.90454800     0.08300
C1062       C  0.47654486  0.80974887  0.89280807    -0.01800
Br1063     Br  0.46556489  0.86233384  0.89603434    -0.00400
Br1064     Br  0.40304628  0.80322188  0.85828042    -0.00500
Br1065     Br  0.56520687  0.73957630  0.92641350    -0.00400
Br1066     Br  0.50785461  0.68143480  0.88194021    -0.00400
C1067       C  0.64972783  0.79538073  0.92149953    -0.01500
C1068       C  0.64091679  0.83008357  0.90412776     0.08200
C1069       C  0.66634360  0.84399032  0.87732333    -0.01600
C1070       C  0.68848245  0.81868200  0.85721243    -0.01600
C1071       C  0.68603779  0.77938314  0.86540677     0.08300
C1072       C  0.66948617  0.76857384  0.90079549    -0.01800
Br1073     Br  0.67320046  0.71851998  0.92235839    -0.00400
Br1074     Br  0.63834957  0.78708227  0.97459963    -0.00500
Br1075     Br  0.72274282  0.83938389  0.82078767    -0.00400
Br1076     Br  0.66222750  0.89584111  0.86137696    -0.00400
C1077       C  0.19062032  0.33680021  0.90391879    -0.01500
C1078       C  0.17824993  0.37370129  0.89607220     0.08200
C1079       C  0.18329922  0.38855805  0.85810796    -0.01600
C1080       C  0.20798519  0.37099763  0.83301120    -0.01600
C1081       C  0.22624078  0.33773118  0.84467315     0.08300
C1082       C  0.21577219  0.31963166  0.87935405    -0.01800
Br1083     Br  0.23596255  0.27129614  0.89392722    -0.00400
Br1084     Br  0.17334879  0.31024566  0.94914523    -0.00500
Br1085     Br  0.21940314  0.39438437  0.78401678    -0.00400
Br1086     Br  0.15574405  0.43119601  0.83814796    -0.00400
C1087       C  0.19074197  0.50915482  0.88399781    -0.01500
C1088       C  0.20966073  0.47701550  0.89839492     0.08200
C1089       C  0.24278698  0.46567539  0.87968638    -0.01600
C1090       C  0.25662764  0.48700489  0.84852737    -0.01600
C1091       C  0.23748097  0.51879451  0.83456232     0.08300
C1092       C  0.20406821  0.52931479  0.85177755    -0.01800
Br1093     Br  0.17727399  0.57278076  0.83251811    -0.00400
Br1094     Br  0.14730779  0.52728172  0.90921840    -0.00500
Br1095     Br  0.30188973  0.47230431  0.82377095    -0.00400
Br1096     Br  0.27010398  0.42055745  0.89375616    -0.00400
C1097       C  0.60058544  0.09929053  0.82180552    -0.01500
C1098       C  0.61224941  0.06699350  0.84408280     0.08200
C1099       C  0.64900223  0.06600563  0.85897239    -0.01600
C1100       C  0.67408146  0.09535983  0.85011341    -0.01600
C1101       C  0.66251064  0.12598384  0.82666389     0.08300
C1102       C  0.62539017  0.12905759  0.81482523    -0.01800
Br1103     Br  0.60967094  0.17377152  0.78663789    -0.00400
Br1104     Br  0.55341336  0.10274883  0.79454139    -0.00500
Br1105     Br  0.72510919  0.09288254  0.86803541    -0.00400
Br1106     Br  0.66620807  0.02246252  0.88771467    -0.00400
C1107       C  0.46243915  0.03591625  0.83522521    -0.01500
C1108       C  0.49427569  0.04852675  0.85530456     0.08200
C1109       C  0.49646822  0.08708030  0.86393928    -0.01600
C1110       C  0.47365867  0.11321536  0.84355953    -0.01600
C1111       C  0.44758647  0.10057667  0.81548144     0.08300
C1112       C  0.44007427  0.06148894  0.81393177    -0.01800
Br1113     Br  0.39958395  0.04185483  0.78282576    -0.00400
Br1114     Br  0.45247311  0.98273039  0.83428773    -0.00500
Br1115     Br  0.48172243  0.16615113  0.85174444    -0.00400
Br1116     Br  0.53181018  0.10519645  0.90144245    -0.00400
C1117       C  0.87879304  0.46915524  0.85051586    -0.01500
C1118       C  0.91216860  0.48269456  0.86897008     0.08200
C1119       C  0.92884990  0.51557563  0.85357902    -0.01600
C1120       C  0.91132093  0.53589915  0.82299224    -0.01600
C1121       C  0.87638768  0.52440173  0.80800926     0.08300
C1122       C  0.86057808  0.49079720  0.82148890    -0.01800
Br1123     Br  0.81383400  0.47413716  0.79901846    -0.00400
Br1124     Br  0.85805254  0.41979651  0.86069343    -0.00500
Br1125     Br  0.93468695  0.58060288  0.80267885    -0.00400
Br1126     Br  0.97598668  0.53326116  0.87384826    -0.00400
C1127       C  0.94243227  0.34501653  0.87872099    -0.01500
C1128       C  0.95209322  0.38279536  0.87170989     0.08200
C1129       C  0.94998393  0.39655825  0.83298849    -0.01600
C1130       C  0.92936615  0.37654831  0.80499248    -0.01600
C1131       C  0.91235151  0.34217972  0.81505422     0.08300
C1132       C  0.92155110  0.32515202  0.85109308    -0.01800
Br1133     Br  0.90616547  0.27444934  0.86297863    -0.00400
Br1134     Br  0.95779019  0.32107788  0.92674832    -0.00500
Br1135     Br  0.92230759  0.39760286  0.75374801    -0.00400
Br1136     Br  0.97632218  0.44109570  0.81647889    -0.00400
C1137       C  0.91853627  0.35470921  0.10566142    -0.01500
C1138       C  0.92503961  0.39237461  0.11577325     0.08200
C1139       C  0.91702222  0.40291017  0.15414484    -0.01600
C1140       C  0.89613527  0.37859324  0.17819426    -0.01600
C1141       C  0.88470850  0.34325177  0.16514512     0.08300
C1142       C  0.89806269  0.33053128  0.12986888    -0.01800
Br1143     Br  0.88839766  0.27968369  0.11457475    -0.00400
Br1144     Br  0.93713714  0.33656904  0.05773742    -0.00500
Br1145     Br  0.88065060  0.39454386  0.22811701    -0.00400
Br1146     Br  0.93361230  0.44971887  0.17557045    -0.00400
C1147       C  0.90917034  0.53508399  0.12039240    -0.01500
C1148       C  0.89324694  0.50063846  0.10917210     0.08200
C1149       C  0.85905913  0.48899751  0.12658277    -0.01600
C1150       C  0.84106731  0.51236965  0.15269038    -0.01600
C1151       C  0.85608271  0.54751381  0.16152106     0.08300
C1152       C  0.89023404  0.55871684  0.14546784    -0.01800
Br1153     Br  0.91001277  0.60793096  0.15599342    -0.00400
Br1154     Br  0.95711604  0.55033884  0.10169193    -0.00500
Br1155     Br  0.79622127  0.49603286  0.17788418    -0.00400
Br1156     Br  0.83644370  0.44038563  0.11820620    -0.00400
C1157       C  0.60261802  0.80837963  0.21169392    -0.01500
C1158       C  0.63058558  0.79135844  0.19084821     0.08200
C1159       C  0.63911309  0.80563973  0.15376150    -0.01600
C1160       C  0.62035256  0.83733406  0.13810563    -0.01600
C1161       C  0.59173387  0.85456264  0.15844106     0.08300
C1162       C  0.58336325  0.83977593  0.19627930    -0.01800
Br1163     Br  0.54547600  0.85930200  0.22930883    -0.00400
Br1164     Br  0.58888086  0.78632478  0.26088050    -0.00500
Br1165     Br  0.63520165  0.85822959  0.08914029    -0.00400
Br1166     Br  0.67727400  0.78244345  0.12420953    -0.00400
C1167       C  0.44994334  0.85926894  0.15908657    -0.01500
C1168       C  0.48500255  0.84934424  0.14487900     0.08200
C1169       C  0.49808295  0.81240304  0.15335805    -0.01600
C1170       C  0.48033552  0.78943536  0.18097079    -0.01600
C1171       C  0.44769096  0.80150131  0.19829260     0.08300
C1172       C  0.43181908  0.83606042  0.18620855    -0.01800
Br1173     Br  0.38508185  0.85220678  0.20640565    -0.00400
Br1174     Br  0.42650349  0.90499429  0.14071474    -0.00500
Br1175     Br  0.50262422  0.74232122  0.19749040    -0.00400
Br1176     Br  0.53791569  0.78996677  0.12652777    -0.00400
C1177       C  0.92571687  0.78319361  0.45941438    -0.01500
C1178       C  0.93950447  0.81606251  0.44046912     0.08200
C1179       C  0.93447913  0.81880802  0.40022466    -0.01600
C1180       C  0.90813790  0.79587979  0.38150136    -0.01600
C1181       C  0.88778815  0.76883849  0.40257808     0.08300
C1182       C  0.89874716  0.76051681  0.44078128    -0.01800
Br1183     Br  0.87524693  0.71941484  0.46793027    -0.00400
Br1184     Br  0.94497838  0.76630398  0.50876967    -0.00500
Br1185     Br  0.89914447  0.80278658  0.32722052    -0.00400
Br1186     Br  0.96151916  0.85668573  0.37170562    -0.00400
C1187       C  0.86376930  0.82111560  0.52797739    -0.01500
C1188       C  0.89885050  0.83708026  0.53977651     0.08200
C1189       C  0.91477413  0.82516968  0.57550670    -0.01600
C1190       C  0.89713375  0.79734247  0.59810168    -0.01600
C1191       C  0.86218770  0.78273765  0.58665465     0.08300
C1192       C  0.84512105  0.79557754  0.55238015    -0.01800
Br1193     Br  0.79596212  0.77715964  0.53881496    -0.00400
Br1194     Br  0.84077107  0.82962339  0.47762966    -0.00500
Br1195     Br  0.92035221  0.78020738  0.64588674    -0.00400
Br1196     Br  0.96082492  0.84679270  0.59428320    -0.00400
C1197       C  0.94475676  0.08476674  0.58559276    -0.01500
C1198       C  0.93662472  0.06689788  0.55076140     0.08200
C1199       C  0.89888050  0.06537835  0.53842037    -0.01600
C1200       C  0.87200981  0.08862667  0.55471256    -0.01600
C1201       C  0.88187312  0.11154742  0.58589167     0.08300
C1202       C  0.91789240  0.10723280  0.60294346    -0.01800
Br1203     Br  0.93157442  0.13099372  0.65025166    -0.00400
Br1204     Br  0.99488402  0.08169517  0.60628760    -0.00500
Br1205     Br  0.82244940  0.09090812  0.53210640    -0.00400
Br1206     Br  0.88287710  0.03022667  0.50095464    -0.00400
C1207       C  0.92872811  0.04158813  0.41649922    -0.01500
C1208       C  0.96500761  0.05540482  0.42058273     0.08200
C1209       C  0.97579480  0.08101179  0.39180954    -0.01600
C1210       C  0.94891417  0.10594587  0.37608164    -0.01600
C1211       C  0.91080481  0.10121125  0.38594819     0.08300
C1212       C  0.90047095  0.06587455  0.40224143    -0.01800
Br1213     Br  0.84944580  0.04984069  0.40530157    -0.00400
Br1214     Br  0.92061558  0.98891263  0.42540883    -0.00500
Br1215     Br  0.96535585  0.14515101  0.34142826    -0.00400
Br1216     Br  0.02813140  0.08864978  0.38434820    -0.00400
C1217       C  0.17025074  0.80251912  0.59610714    -0.01500
C1218       C  0.18535684  0.83435855  0.57797366     0.08200
C1219       C  0.21831868  0.84928923  0.59419336    -0.01600
C1220       C  0.24196513  0.82633992  0.61750284    -0.01600
C1221       C  0.23108423  0.78874854  0.62706579     0.08300
C1222       C  0.19293414  0.77933046  0.62014005    -0.01800
Br1223     Br  0.16963769  0.73659665  0.64456272    -0.00400
Br1224     Br  0.11874090  0.79053616  0.58675584    -0.00500
Br1225     Br  0.28845436  0.84814155  0.63495730    -0.00400
Br1226     Br  0.23430625  0.89828261  0.57639357    -0.00400
C1227       C  0.14814194  0.81053244  0.41428474    -0.01500
C1228       C  0.14239539  0.79470527  0.45087960     0.08200
C1229       C  0.14591549  0.75530678  0.45451668    -0.01600
C1230       C  0.16947833  0.73624528  0.42950746    -0.01600
C1231       C  0.18536910  0.75603806  0.39827075     0.08300
C1232       C  0.17217981  0.79256643  0.38904545    -0.01800
Br1233     Br  0.18799976  0.81888198  0.34320332    -0.00400
Br1234     Br  0.13090042  0.86064492  0.40399288    -0.00500
Br1235     Br  0.18366671  0.68520727  0.44137119    -0.00400
Br1236     Br  0.12741371  0.72989693  0.49959130    -0.00400
loop_ 
_geom_bond_atom_site_label_1 
_geom_bond_atom_site_label_2 
_geom_bond_distance 
_geom_bond_site_symmetry_2 
_ccdc_geom_bond_type 
N1            C5   1.371       .  A
N1            C2   1.380       .  A
N1          C573   1.474       .  S
C2            C3   1.385       .  A
C2         C1218   1.489       .  S
C3            C4   1.342       .  A
C3            H6   1.083       .  S
C4            C5   1.380       .  A
C4            H7   1.082       .  S
C5         C1228   1.476       .  S
N8           C12   1.369       .  A
N8            C9   1.375       .  A
N8          C575   1.473   1_655  S
C9           C10   1.384       .  A
C9         C1198   1.498       .  S
C10          C11   1.351       .  A
C10          H13   1.084       .  S
C11          C12   1.385       .  A
C11          H14   1.082       .  S
C12        C1208   1.492       .  S
N15          C19   1.361       .  A
N15          C16   1.369       .  A
N15         C576   1.486       .  S
C16          C17   1.381       .  A
C16        C1188   1.507       .  S
C17          C18   1.367       .  A
C17          H20   1.082       .  S
C18          C19   1.395       .  A
C18          H21   1.082       .  S
C19        C1178   1.510       .  S
N22          C26   1.376       .  A
N22          C23   1.365       .  A
N22         C608   1.491       .  S
C23          C24   1.394       .  A
C23        C1168   1.512       .  S
C24          C25   1.369       .  A
C24          H27   1.083       .  S
C25          C26   1.379       .  A
C25          H28   1.083       .  S
C26        C1161   1.519       .  S
N29          C33   1.362       .  A
N29          C30   1.373       .  A
N29         C644   1.484       .  S
C30          C31   1.382       .  A
C30        C1148   1.514       .  S
C31          C32   1.367       .  A
C31          H34   1.083       .  S
C32          C33   1.392       .  A
C32          H35   1.082       .  S
C33        C1138   1.511       .  S
N36          C40   1.370       .  A
N36          C37   1.359       .  A
N36         C643   1.481       .  S
C37          C38   1.396       .  A
C37        C1128   1.509       .  S
C38          C39   1.369       .  A
C38          H41   1.082       .  S
C39          C40   1.382       .  A
C39          H42   1.083       .  S
C40        C1118   1.515       .  S
N43          C47   1.370       .  A
N43          C44   1.365       .  A
N43         C610   1.478       .  S
C44          C45   1.390       .  A
C44        C1108   1.500       .  S
C45          C46   1.365       .  A
C45          H48   1.083       .  S
C46          C47   1.381       .  A
C46          H49   1.083       .  S
C47        C1098   1.502       .  S
N50          C54   1.365       .  A
N50          C51   1.362       .  A
N50         C642   1.481       .  S
C51          C52   1.397       .  A
C51        C1078   1.517       .  S
C52          C53   1.367       .  A
C52          H55   1.082       .  S
C53          C54   1.381       .  A
C53          H56   1.082       .  S
C54        C1088   1.504       .  S
N57          C61   1.371       .  A
N57          C58   1.370       .  A
N57         C609   1.468       .  S
C58          C59   1.381       .  A
C58        C1061   1.475       .  S
C59          C60   1.349       .  A
C59          H62   1.083       .  S
C60          C61   1.386       .  A
C60          H63   1.083       .  S
C61        C1068   1.486       .  S
N64          C68   1.364       .  A
N64          C65   1.364       .  A
N64         C712   1.485       .  S
C65          C66   1.382       .  A
C65        C1041   1.505       .  S
C66          C67   1.367       .  A
C66          H69   1.082       .  S
C67          C68   1.394       .  A
C67          H70   1.083       .  S
C68        C1051   1.515       .  S
O71         Mg73   2.160       .  S
O71         Mg79   2.147       .  S
O71         C106   1.234       .  S
C72         H111   1.081       .  S
C72          O85   1.234       .  S
C72         O109   1.272       .  A
Mg73        O102   2.169       .  S
Mg73        O117   2.264       .  S
Mg73        O113   2.233       .  S
Mg73         O84   2.294       .  S
O74        Mg116   2.157       .  S
O74         Mg99   2.163       .  S
O74          C95   1.236       .  S
O75         C106   1.270       .  A
O75         Mg99   2.309       .  S
C76        C1028   1.482       .  S
C76          O78   1.271       .  A
C76          O90   1.266       .  A
O77         C105   1.272       .  A
O77         Mg79   2.320       .  S
O78        Mg110   2.293       .  S
Mg79         O85   2.187       .  S
Mg79         O93   2.290       .  S
Mg79         O81   2.272       .  S
C80         C991   1.475       .  S
C80         O118   1.264       .  A
C80          O86   1.272       .  A
O81          C88   1.268       .  A
H82          C95   1.081       .  S
C83         H108   1.081       .  S
C83          O97   1.235       .  S
C83          O98   1.273       .  A
O84         C107   1.267       .  A
O85         Mg99   2.173       .  S
O86        Mg116   2.301       .  S
C87        C1048   1.487       .  S
C87         O100   1.269       .  A
C87          O92   1.272       .  A
C88        C1011   1.491       .  S
C88         O115   1.268       .  A
Mg89         O96   2.160       .  S
Mg89         O97   2.148       .  S
Mg89         O90   2.264       .  S
Mg89         O91   2.311       .  S
Mg89        O118   2.242       .  S
O91          C95   1.272       .  A
O92         Mg99   2.299       .  S
O93         C112   1.269       .  A
O94         C114   1.275       .  A
O94        Mg110   2.317       .  S
O96        Mg110   2.159       .  S
O96         C107   1.232       .  S
O97        Mg116   2.166       .  S
O98        Mg110   2.327       .  S
Mg99        O115   2.253       .  S
O100       Mg116   2.289       .  S
H101        C106   1.081       .  S
O102       Mg110   2.157       .  S
O102        C105   1.235       .  S
H103        C105   1.081       .  S
H104        C107   1.081       .  S
O109       Mg116   2.328       .  S
C112       C1021   1.488       .  S
C112        O117   1.267       .  A
O113        C114   1.267       .  A
C114        C998   1.470       .  S
N119        C123   1.363       .  A
N119        C120   1.368       .  A
N119        C745   1.486       .  S
C120        C121   1.380       .  A
C120       C1031   1.510       .  S
C121        C122   1.369       .  A
C121        H124   1.083       .  S
C122        C123   1.398       .  A
C122        H125   1.081       .  S
C123        C978   1.520       .  S
O126       Mg128   2.171       .  S
O126       Mg134   2.160       .  S
O126        C161   1.232       .  S
C127        H166   1.081       .  S
C127        O140   1.237       .  S
C127        O164   1.275       .  A
Mg128       O157   2.160       .  S
Mg128       O172   2.267       .  S
Mg128       O168   2.282       .  S
Mg128       O139   2.330       .  S
O129       Mg171   2.159       .  S
O129       Mg154   2.169       .  S
O129        C150   1.237       .  S
O130        C161   1.267       .  A
O130       Mg154   2.304       .  S
C131        C958   1.478       .  S
C131        O133   1.268       .  A
C131        O145   1.276       .  A
O132        C160   1.273       .  A
O132       Mg134   2.327       .  S
O133       Mg165   2.259       .  S
Mg134       O140   2.177       .  S
Mg134       O148   2.331       .  S
Mg134       O136   2.319       .  S
C135        C948   1.481       .  S
C135        O173   1.269       .  A
C135        O141   1.259       .  A
O136        C143   1.277       .  A
H137        C150   1.081       .  S
C138        H163   1.081       .  S
C138        O153   1.269       .  A
C138        O152   1.260       .  A
O139        C162   1.276       .  A
O140       Mg154   2.162       .  S
O141       Mg171   2.242       .  S
C142        C968   1.485       .  S
C142        O155   1.260       .  A
C142        O147   1.270       .  A
C143       C1231   1.487       .  S
C143        O170   1.269       .  A
Mg144       O151   2.150       .  S
Mg144       O145   2.315       .  S
Mg144       O146   2.344       .  S
Mg144       O173   2.333       .  S
Mg144       O152   2.235       .  S
O146        C150   1.277       .  A
O147       Mg154   2.260       .  S
O148        C167   1.272       .  A
O149        C169   1.262       .  A
O149       Mg165   2.238       .  S
O151       Mg165   2.157       .  S
O151        C162   1.238       .  S
O152       Mg171   2.237       .  S
O153       Mg165   2.331       .  S
Mg154       O170   2.262       .  S
O155       Mg171   2.242       .  S
H156        C161   1.080       .  S
O157       Mg165   2.187       .  S
O157        C160   1.235       .  S
H158        C160   1.081       .  S
H159        C162   1.081       .  S
O164       Mg171   2.327       .  S
C167        C981   1.495       .  S
C167        O172   1.267       .  A
O168        C169   1.263       .  A
C169       C1171   1.484       .  S
O174       Mg176   2.163       .  S
O174       Mg182   2.155       .  S
O174        C209   1.236       .  S
C175        H214   1.080       .  S
C175        O188   1.237       .  S
C175        O212   1.273       .  A
Mg176       O205   2.142       .  S
Mg176       O220   2.284       .  S
Mg176       O216   2.289       .  S
Mg176       O187   2.317       .  S
O177       Mg219   2.157       .  S
O177       Mg202   2.170       .  S
O177        C198   1.234       .  S
O178        C209   1.275       .  A
O178       Mg202   2.331       .  S
C179       C1038   1.472       .  S
C179        O181   1.265       .  A
C179        O193   1.270       .  A
O180        C208   1.268       .  A
O180       Mg182   2.300       .  S
O181       Mg213   2.221       .  S
Mg182       O188   2.182       .  S
Mg182       O196   2.294       .  S
Mg182       O184   2.257       .  S
C183       C1211   1.502       .  S
C183        O221   1.267       .  A
C183        O189   1.268       .  A
O184        C191   1.269       .  A
H185        C198   1.081       .  S
C186        H211   1.081       .  S
C186        O200   1.234       .  S
C186        O201   1.270       .  A
O187        C210   1.271       .  A
O188       Mg202   2.152       .  S
O189       Mg219   2.238       .  S
C190        C938   1.488       .  S
C190        O203   1.268       .  A
C190        O195   1.267       .  A
C191        C918   1.486       .  S
C191        O218   1.266       .  A
Mg192       O199   2.165       .  S
Mg192       O200   2.187       .  S
Mg192       O193   2.293       .  S
Mg192       O194   2.326       .  S
Mg192       O221   2.285       .  S
O194        C198   1.272       .  A
O195       Mg202   2.272       .  S
O196        C215   1.271       .  A
O197        C217   1.269       .  A
O197       Mg213   2.293       .  S
O199       Mg213   2.167       .  S
O199        C210   1.234       .  S
O200       Mg219   2.180       .  S
O201       Mg213   2.309       .  S
Mg202       O218   2.284       .  S
O203       Mg219   2.303       .  S
H204        C209   1.081       .  S
O205       Mg213   2.147       .  S
O205        C208   1.233       .  S
H206        C208   1.081       .  S
H207        C210   1.081       .  S
O212       Mg219   2.321       .  S
C215        C928   1.488       .  S
C215        O220   1.273       .  A
O216        C217   1.270       .  A
C217       C1141   1.486       .  S
N222        C226   1.357       .  A
N222        C223   1.373       .  A
N222        C744   1.480       .  S
C223        C224   1.383       .  A
C223        C941   1.516       .  S
C224        C225   1.368       .  A
C224        H227   1.083       .  S
C225        C226   1.394       .  A
C225        H228   1.082       .  S
C226        C908   1.504       .  S
O229       Mg231   2.175       .  S
O229       Mg237   2.164       .  S
O229        C264   1.234       .  S
C230        H269   1.081       .  S
C230        O243   1.236       .  S
C230        O267   1.273       .  A
Mg231       O260   2.141       .  S
Mg231       O275   2.262       .  S
Mg231       O271   2.271       .  S
Mg231       O242   2.329       .  S
O232       Mg274   2.148       .  S
O232       Mg257   2.163       .  S
O232        C253   1.234       .  S
O233        C264   1.270       .  A
O233       Mg257   2.308       .  S
C234        C911   1.482       .  S
C234        O236   1.268       .  A
C234        O248   1.272       .  A
O235        C263   1.271       .  A
O235       Mg237   2.318       .  S
O236       Mg268   2.244       .  S
Mg237       O243   2.145       .  S
Mg237       O251   2.260       .  S
Mg237       O239   2.328       .  S
C238       C1181   1.483       .  S
C238        O276   1.270       .  A
C238        O244   1.266       .  A
O239        C246   1.276       .  A
H240        C253   1.081       .  S
C241        H266   1.078       .  S
C241        O255   1.235       .  S
C241        O256   1.268       .  A
O242        C265   1.275       .  A
O243       Mg257   2.147       .  S
O244       Mg274   2.279       .  S
C245        C898   1.474       .  S
C245        O258   1.265       .  A
C245        O250   1.264       .  A
C246       C1151   1.486       .  S
C246        O273   1.268       .  A
Mg247       O254   2.178       .  S
Mg247       O255   2.160       .  S
Mg247       O248   2.297       .  S
Mg247       O249   2.320       .  S
Mg247       O276   2.296       .  S
O249        C253   1.271       .  A
O250       Mg257   2.248       .  S
O251        C270   1.269       .  A
O252        C272   1.269       .  A
O252       Mg268   2.269       .  S
O254       Mg268   2.159       .  S
O254        C265   1.237       .  S
O255       Mg274   2.167       .  S
O256       Mg268   2.295       .  S
Mg257       O273   2.256       .  S
O258       Mg274   2.251       .  S
H259        C264   1.081       .  S
O260       Mg268   2.154       .  S
O260        C263   1.233       .  S
H261        C263   1.081       .  S
H262        C265   1.081       .  S
O267       Mg274   2.319       .  S
C270        C891   1.465       .  S
C270        O275   1.264       .  A
O271        C272   1.264       .  A
C272       C1158   1.488       .  S
N277        C281   1.364       .  A
N277        C278   1.360       .  A
N277        C711   1.456       .  S
C278        C279   1.384       .  A
C278        C971   1.473       .  S
C279        C280   1.354       .  A
C279        H282   1.082       .  S
C280        C281   1.384       .  A
C280        H283   1.083       .  S
C281        C901   1.474   1_455  S
N284        C288   1.360       .  A
N284        C285   1.373   1_556  A
N284        C678   1.486   1_556  S
C285        C286   1.381   1_554  A
C285       C1018   1.519       .  S
C286        C287   1.370       .  A
C286        H289   1.083   1_556  S
C287        C288   1.400       .  A
C287        H290   1.081       .  S
C288        C881   1.516       .  S
O291       Mg293   2.157       .  S
O291       Mg299   2.155       .  S
O291        C326   1.234       .  S
C292        H331   1.081       .  S
C292        O305   1.236       .  S
C292        O329   1.272       .  A
Mg293       O322   2.146       .  S
Mg293       O337   2.222       .  S
Mg293       O333   2.255       .  S
Mg293       O304   2.325       .  S
O294       Mg336   2.156       .  S
O294       Mg319   2.170       .  S
O294        C315   1.234       .  S
O295        C326   1.272       .  A
O295       Mg319   2.320       .  S
C296        C871   1.476       .  S
C296        O298   1.265       .  A
C296        O310   1.273       .  A
O297        C325   1.274       .  A
O297       Mg299   2.322       .  S
O298       Mg330   2.243       .  S
Mg299       O305   2.163       .  S
Mg299       O313   2.289       .  S
Mg299       O301   2.269       .  S
C300       C1111   1.498       .  S
C300        O338   1.269       .  A
C300        O306   1.268       .  A
O301        C308   1.267       .  A
H302        C315   1.081       .  S
C303        H328   1.081       .  S
C303        O317   1.234       .  S
C303        O318   1.271       .  A
O304        C327   1.273       .  A
O305       Mg319   2.147       .  S
O306       Mg336   2.263       .  S
C307        C878   1.486       .  S
C307        O320   1.269       .  A
C307        O312   1.270       .  A
C308       C1081   1.486       .  S
C308        O335   1.269       .  A
Mg309       O316   2.164       .  S
Mg309       O317   2.166       .  S
Mg309       O310   2.295       .  S
Mg309       O311   2.319       .  S
Mg309       O338   2.282       .  S
O311        C315   1.271       .  A
O312       Mg319   2.279       .  S
O313        C332   1.265       .  A
O314        C334   1.267       .  A
O314       Mg330   2.279       .  S
O316       Mg330   2.158       .  S
O316        C327   1.236       .  S
O317       Mg336   2.177       .  S
O318       Mg330   2.319       .  S
Mg319       O335   2.287       .  S
O320       Mg336   2.283       .  S
H321        C326   1.081       .  S
O322       Mg330   2.147       .  S
O322        C325   1.237       .  S
H323        C325   1.079       .  S
H324        C327   1.081       .  S
O329       Mg336   2.317       .  S
C332        C861   1.483       .  S
C332        O337   1.259       .  A
O333        C334   1.262       .  A
C334        C851   1.470       .  S
N339        C343   1.377       .  A
N339        C340   1.366       .  A
N339        C746   1.467       .  S
C340        C341   1.379       .  A
C340        C868   1.472       .  S
C341        C342   1.345       .  A
C341        H344   1.083       .  S
C342        C343   1.388       .  A
C342        H345   1.083       .  S
C343        C838   1.495       .  S
O346       Mg348   2.190       .  S
O346       Mg354   2.166       .  S
O346        C381   1.234       .  S
C347        H386   1.081       .  S
C347        O384   1.270       .  A
C347        O360   1.262       .  A
Mg348       O377   2.164       .  S
Mg348       O392   2.299       .  S
Mg348       O388   2.291       .  S
Mg348       O359   2.320       .  S
O349       Mg391   2.162       .  S
O349       Mg374   2.126       .  S
O349        C370   1.237       .  S
O350        C381   1.275       .  A
O350       Mg374   2.340       .  S
C351        C831   1.485       .  S
C351        O353   1.272       .  A
C351        O365   1.269       .  A
O352        C380   1.273       .  A
O352       Mg354   2.326       .  S
O353       Mg385   2.289       .  S
Mg354       O368   2.234       .  S
Mg354       O356   2.288       .  S
Mg354       O360   2.239       .  S
C355       C1091   1.479       .  S
C355        O393   1.268       .  A
C355        O361   1.261       .  A
O356        C363   1.270       .  A
H357        C370   1.081       .  S
C358        H383   1.081       .  S
C358        O372   1.233       .  S
C358        O373   1.268       .  A
O359        C382   1.270       .  A
O360       Mg374   2.242       .  S
O361       Mg391   2.246       .  S
C362        C821   1.470       .  S
C362        O375   1.265       .  A
C362        O367   1.272       .  A
C363       C1058   1.484       .  S
C363        O390   1.265       .  A
Mg364       O371   2.179       .  S
Mg364       O372   2.141       .  S
Mg364       O365   2.279       .  S
Mg364       O366   2.321       .  S
Mg364       O393   2.301       .  S
O366        C370   1.274       .  A
O367       Mg374   2.298       .  S
O368        C387   1.261       .  A
O369        C389   1.273       .  A
O369       Mg385   2.300       .  S
O371       Mg385   2.158       .  S
O371        C382   1.232       .  S
O372       Mg391   2.149       .  S
O373       Mg385   2.305       .  S
Mg374       O390   2.260       .  S
O375       Mg391   2.228       .  S
H376        C381   1.081       .  S
O377       Mg385   2.196       .  S
O377        C380   1.234       .  S
H378        C380   1.081       .  S
H379        C382   1.081       .  S
O384       Mg391   2.323       .  S
C387        C841   1.507       .  S
C387        O392   1.273       .  A
O388        C389   1.269       .  A
C389       C1221   1.520       .  S
N394        C398   1.374       .  A
N394        C395   1.372       .  A
N394        C710   1.470       .  S
C395        C396   1.380       .  A
C395        C828   1.482       .  S
C396        C397   1.350       .  A
C396        H399   1.083       .  S
C397        C398   1.386       .  A
C397        H400   1.083       .  S
C398        C811   1.492   1_455  S
N401        C405   1.375       .  A
N401        C402   1.372       .  A
N401        C709   1.470       .  S
C402        C403   1.380       .  A
C402        C858   1.485       .  S
C403        C404   1.352       .  A
C403        H406   1.083       .  S
C404        C405   1.388       .  A
C404        H407   1.082       .  S
C405        C798   1.505   1_455  S
O408        C443   1.261       .  A
O408       Mg410   2.263       .  S
O408       Mg416   2.239       .  S
C409        H448   1.081       .  S
C409        O422   1.235       .  S
C409        O446   1.273       .  A
Mg410       O439   2.166       .  S
Mg410       O454   2.285       .  S
Mg410       O450   2.281       .  S
Mg410       O421   2.310       .  S
O411       Mg453   2.176       .  S
O411       Mg436   2.188       .  S
O411        C432   1.235       .  S
O412        C443   1.272       .  A
O412       Mg436   2.343       .  S
C413        C781   1.497       .  S
C413        O415   1.269       .  A
C413        O427   1.269       .  A
O414        C442   1.272       .  A
O414       Mg416   2.325       .  S
O415       Mg447   2.286       .  S
Mg416       O422   2.176       .  S
Mg416       O430   2.290       .  S
Mg416       O418   2.256       .  S
C417       C1101   1.471       .  S
C417        O455   1.266       .  A
C417        O423   1.269       .  A
O418        C425   1.269       .  A
H419        C432   1.081       .  S
C420        H445   1.081       .  S
C420        O434   1.235       .  S
C420        O435   1.272       .  A
O421        C444   1.270       .  A
O422       Mg436   2.181       .  S
O423       Mg453   2.275       .  S
C424        C788   1.495       .  S
C424        O437   1.265       .  A
C424        O429   1.266       .  A
C425       C1201   1.497       .  S
C425        O452   1.267       .  A
Mg426       O433   2.160       .  S
Mg426       O434   2.153       .  S
Mg426       O427   2.275       .  S
Mg426       O428   2.330       .  S
Mg426       O455   2.270       .  S
O428        C432   1.274       .  A
O429       Mg436   2.254       .  S
O430        C449   1.266       .  A
O431        C451   1.270       .  A
O431       Mg447   2.277       .  S
O433       Mg447   2.157       .  S
O433        C444   1.233       .  S
O434       Mg453   2.154       .  S
O435       Mg447   2.319       .  S
Mg436       O452   2.279       .  S
O437       Mg453   2.267       .  S
H438        C443   1.081       .  S
O439       Mg447   2.175       .  S
O439        C442   1.234       .  S
H440        C442   1.081       .  S
H441        C444   1.081       .  S
O446       Mg453   2.330       .  S
C449        C801   1.502       .  S
C449        O454   1.271       .  A
O450        C451   1.269       .  A
C451       C1131   1.486       .  S
N456        C460   1.366       .  A
N456        C457   1.365       .  A
N456        C743   1.458       .  S
C457        C458   1.386       .  A
C457        C791   1.487   1_565  S
C458        C459   1.356       .  A
C458        H461   1.082   1_565  S
C459        C460   1.382       .  A
C459        H462   1.083       .  S
C460        C768   1.480       .  S
O463       Mg465   2.161       .  S
O463       Mg471   2.166       .  S
O463        C498   1.231       .  S
C464        H503   1.081       .  S
C464        O477   1.234       .  S
C464        O501   1.270       .  A
Mg465       O494   2.153       .  S
Mg465       O509   2.256       .  S
Mg465       O505   2.209       .  S
Mg465       O476   2.335       .  S
O466       Mg508   2.147       .  S
O466       Mg491   2.147       .  S
O466        C487   1.235       .  S
O467        C498   1.266       .  A
O467       Mg491   2.293       .  S
C468       C1071   1.511       .  S
C468        O470   1.270       .  A
C468        O482   1.270       .  A
O469        C497   1.274       .  A
O469       Mg471   2.335       .  S
O470       Mg502   2.303       .  S
Mg471       O477   2.158       .  S
Mg471       O485   2.305       .  S
Mg471       O473   2.273       .  S
C472        C771   1.479       .  S
C472        O510   1.261       .  A
C472        O478   1.262       .  A
O473        C480   1.270       .  A
H474        C487   1.081       .  S
C475        H500   1.080       .  S
C475        O489   1.234       .  S
C475        O490   1.272       .  A
O476        C499   1.272       .  A
O477       Mg491   2.177       .  S
O478       Mg508   2.235       .  S
C479       C1191   1.476       .  S
C479        O492   1.265       .  A
C479        O484   1.271       .  A
C480        C808   1.491       .  S
C480        O507   1.269       .  A
Mg481       O489   2.167       .  S
Mg481       O482   2.296       .  S
Mg481       O483   2.317       .  S
Mg481       O510   2.258       .  S
Mg481       O488   2.242       .  S
O483        C487   1.272       .  A
O484       Mg491   2.290       .  S
O485        C504   1.266       .  A
O486        C506   1.273       .  A
O486       Mg502   2.302       .  S
O488        C499   1.262       .  A
O488       Mg502   2.224       .  S
O489       Mg508   2.171       .  S
O490       Mg502   2.322       .  S
Mg491       O507   2.247       .  S
O492       Mg508   2.237       .  S
H493        C498   1.080       .  S
O494       Mg502   2.167       .  S
O494        C497   1.235       .  S
H495        C497   1.081       .  S
H496        C499   1.081       .  S
O501       Mg508   2.308       .  S
C504       C1121   1.486       .  S
C504        O509   1.263       .  A
O505        C506   1.262       .  A
C506        C758   1.489       .  S
N511        C515   1.369       .  A
N511        C512   1.359       .  A
N511        C677   1.474       .  S
C512        C513   1.389       .  A
C512        C961   1.500       .  S
C513        C514   1.371       .  A
C513        H516   1.083       .  S
C514        C515   1.379       .  A
C514        H517   1.082       .  S
C515        C818   1.507   1_554  S
N518        C522   1.368       .  A
N518        C519   1.375   1_556  A
N518        C675   1.489       .  S
C519        C520   1.382       .  A
C519        C931   1.522       .  S
C520        C521   1.370   1_554  A
C520        H523   1.083       .  S
C521        C522   1.395       .  A
C521        H524   1.081       .  S
C522        C778   1.518       .  S
N525        C529   1.371   1_554  A
N525        C526   1.367       .  A
N525        C676   1.470   1_554  S
C526        C527   1.379       .  A
C526        C888   1.492       .  S
C527        C528   1.353       .  A
C527        H530   1.084       .  S
C528        C529   1.389   1_554  A
C528        H531   1.079       .  S
C529        C761   1.508       .  S
N532        C536   1.361       .  A
N532        C533   1.366       .  A
N532        C607   1.467       .  S
C533        C534   1.381       .  A
C533       C1001   1.494       .  S
C534        C535   1.365       .  A
C534        H537   1.083       .  S
C535        C536   1.389       .  A
C535        H538   1.083       .  S
C536        C921   1.496       .  S
N539        C543   1.371       .  A
N539        C540   1.359       .  A
N539        C641   1.472       .  S
C540        C541   1.386       .  A
C540       C1008   1.494       .  S
C541        C542   1.364       .  A
C541        H544   1.083       .  S
C542        C543   1.384       .  A
C542        H545   1.082       .  S
C543        C951   1.511       .  S
N546        C550   1.367       .  A
N546        C547   1.355       .  A
N546        C574   1.480       .  S
C547        C548   1.388       .  A
C547        C848   1.494       .  S
C548        C549   1.368       .  A
C548        H551   1.083       .  S
C549        C550   1.383       .  A
C549        H552   1.082   1_545  S
C550        C988   1.511       .  S
N553        C558   1.365       .  A
N553        C557   1.364       .  A
N553        H585   1.042       .  S
N554        C561   1.363       .  A
N554        C562   1.362       .  A
N555        C560   1.364   1_455  A
N555        C559   1.360   1_455  A
N555        H586   1.043       .  S
N556        C563   1.360   1_565  A
N556        C564   1.362   1_565  A
C557        C565   1.380       .  A
C557        C573   1.427       .  A
C558        C574   1.440   1_565  A
C558        C566   1.390       .  A
C559        C567   1.392       .  A
C559        C576   1.441       .  A
C560        C575   1.416   1_665  A
C560        C568   1.375       .  A
C561        C573   1.428       .  A
C561        C569   1.380       .  A
C562        C576   1.429   1_455  A
C562        C570   1.381       .  A
C563        C571   1.378       .  A
C563        C574   1.424       .  A
C564        C572   1.384       .  A
C564        C575   1.430       .  A
C565        C566   1.361       .  A
C565        H577   1.078       .  S
C566        H578   1.077       .  S
C567        C568   1.371       .  A
C567        H579   1.080       .  S
C568        H580   1.077       .  S
C569        C570   1.377       .  A
C569        H581   1.075       .  S
C570        H582   1.073       .  S
C571        C572   1.365       .  A
C571        H583   1.072       .  S
C572        H584   1.074       .  S
N587        C592   1.361       .  A
N587        C591   1.362       .  A
N587        H619   1.045       .  S
N588        C595   1.356   1_556  A
N588        C596   1.357       .  A
N589        C594   1.360       .  A
N589        C593   1.368       .  A
N589        H620   1.049       .  S
N590        C597   1.362       .  A
N590        C598   1.361   1_554  A
C591        C599   1.376       .  A
C591        C607   1.416   1_565  A
C592        C608   1.442       .  A
C592        C600   1.390       .  A
C593        C601   1.386       .  A
C593        C610   1.444   1_565  A
C594        C609   1.432       .  A
C594        C602   1.379       .  A
C595        C607   1.430       .  A
C595        C603   1.389   1_554  A
C596        C610   1.415       .  A
C596        C604   1.376       .  A
C597        C605   1.381       .  A
C597        C608   1.430       .  A
C598        C606   1.379       .  A
C598        C609   1.424       .  A
C599        C600   1.374       .  A
C599        H611   1.079   1_565  S
C600        H612   1.076       .  S
C601        C602   1.361       .  A
C601        H613   1.065       .  S
C602        H614   1.074       .  S
C603        C604   1.372       .  A
C603        H615   1.072       .  S
C604        H616   1.080       .  S
C605        C606   1.377   1_554  A
C605        H617   1.066       .  S
C606        H618   1.080       .  S
N621        C626   1.361   1_554  A
N621        C625   1.360       .  A
N621        H653   1.044       .  S
N622        C629   1.359       .  A
N622        C630   1.362       .  A
N623        C628   1.357       .  A
N623        C627   1.359   1_556  A
N623        H654   1.045   1_656  S
N624        C631   1.357       .  A
N624        C632   1.358       .  A
C625        C633   1.377       .  A
C625        C641   1.416       .  A
C626        C642   1.442       .  A
C626        C634   1.394   1_556  A
C627        C635   1.385       .  A
C627        C644   1.429       .  A
C628        C643   1.432       .  A
C628        C636   1.387       .  A
C629        C641   1.440       .  A
C629        C637   1.391       .  A
C630        C644   1.420   1_455  A
C630        C638   1.373       .  A
C631        C639   1.384       .  A
C631        C642   1.423       .  A
C632        C640   1.384       .  A
C632        C643   1.425   1_455  A
C633        C634   1.374       .  A
C633        H645   1.080       .  S
C634        H646   1.078   1_554  S
C635        C636   1.376   1_554  A
C635        H647   1.080       .  S
C636        H648   1.080       .  S
C637        C638   1.373       .  A
C637        H649   1.070       .  S
C638        H650   1.074   1_455  S
C639        C640   1.383       .  A
C639        H651   1.078       .  S
C640        H652   1.078       .  S
N655        C660   1.360       .  A
N655        C659   1.359       .  A
N655        H687   1.045   1_556  S
N656        C663   1.359   1_554  A
N656        C664   1.357   1_554  A
N657        C662   1.364       .  A
N657        C661   1.362       .  A
N657        H688   1.044   1_554  S
N658        C665   1.353       .  A
N658        C666   1.354       .  A
C659        C667   1.382       .  A
C659        C675   1.427       .  A
C660        C676   1.420       .  A
C660        C668   1.381       .  A
C661        C669   1.383       .  A
C661        C678   1.433       .  A
C662        C677   1.435       .  A
C662        C670   1.383       .  A
C663        C675   1.418       .  A
C663        C671   1.381       .  A
C664        C678   1.427   1_556  A
C664        C672   1.384       .  A
C665        C673   1.382       .  A
C665        C676   1.413   1_554  A
C666        C674   1.383       .  A
C666        C677   1.414       .  A
C667        C668   1.369       .  A
C667        H679   1.076       .  S
C668        H680   1.078       .  S
C669        C670   1.368       .  A
C669        H681   1.077       .  S
C670        H682   1.074       .  S
C671        C672   1.383       .  A
C671        H683   1.077       .  S
C672        H684   1.074       .  S
C673        C674   1.376       .  A
C673        H685   1.080       .  S
C674        H686   1.075       .  S
N689        C694   1.367       .  A
N689        C693   1.361       .  A
N689        H721   1.037       .  S
N690        C697   1.358       .  A
N690        C698   1.360       .  A
N691        C696   1.361       .  A
N691        C695   1.361       .  A
N691        H722   1.043       .  S
N692        C699   1.356       .  A
N692        C700   1.355       .  A
C693        C701   1.390       .  A
C693        C709   1.441       .  A
C694        C710   1.426       .  A
C694        C702   1.376       .  A
C695        C703   1.398       .  A
C695        C712   1.448       .  A
C696        C711   1.411       .  A
C696        C704   1.374       .  A
C697        C709   1.425       .  A
C697        C705   1.383       .  A
C698        C712   1.428       .  A
C698        C706   1.384       .  A
C699        C707   1.384       .  A
C699        C710   1.424       .  A
C700        C708   1.383       .  A
C700        C711   1.419       .  A
C701        C702   1.373       .  A
C701        H713   1.073       .  S
C702        H714   1.078       .  S
C703        C704   1.373       .  A
C703        H715   1.078       .  S
C704        H716   1.082       .  S
C705        C706   1.381       .  A
C705        H717   1.081       .  S
C706        H718   1.078       .  S
C707        C708   1.361       .  A
C707        H719   1.075       .  S
C708        H720   1.076       .  S
N723        C728   1.359       .  A
N723        C727   1.352       .  A
N723        H755   1.043       .  S
N724        C731   1.362       .  A
N724        C732   1.363       .  A
N725        C730   1.362       .  A
N725        C729   1.359       .  A
N725        H756   1.038       .  S
N726        C733   1.359       .  A
N726        C734   1.357       .  A
C727        C735   1.383       .  A
C727        C743   1.412       .  A
C728        C744   1.423       .  A
C728        C736   1.385       .  A
C729        C737   1.383       .  A
C729        C746   1.430       .  A
C730        C745   1.429       .  A
C730        C738   1.382       .  A
C731        C743   1.431       .  A
C731        C739   1.384       .  A
C732        C746   1.433       .  A
C732        C740   1.384       .  A
C733        C741   1.383       .  A
C733        C744   1.429       .  A
C734        C742   1.387       .  A
C734        C745   1.434       .  A
C735        C736   1.385       .  A
C735        H747   1.081       .  S
C736        H748   1.075       .  S
C737        C738   1.381       .  A
C737        H749   1.076       .  S
C738        H750   1.075       .  S
C739        C740   1.365       .  A
C739        H751   1.076       .  S
C740        H752   1.077       .  S
C741        C742   1.372       .  A
C741        H753   1.081   1_565  S
C742        H754   1.078   1_565  S
C757        C758   1.420       .  A
C757        C762   1.414       .  A
C757       Br764   1.934       .  S
C758        C759   1.417       .  A
C759        C760   1.404       .  A
C759       Br766   1.936       .  S
C760        C761   1.411       .  A
C760       Br765   1.933       .  S
C761        C762   1.414       .  A
C762       Br763   1.935       .  S
C767        C768   1.403       .  A
C767        C772   1.407       .  A
C767       Br774   1.928       .  S
C768        C769   1.417       .  A
C769        C770   1.406       .  A
C769       Br776   1.912       .  S
C770        C771   1.405       .  A
C770       Br775   1.936       .  S
C771        C772   1.417       .  A
C772       Br773   1.928       .  S
C777        C778   1.419       .  A
C777        C782   1.411       .  A
C777       Br784   1.935       .  S
C778        C779   1.427       .  A
C779        C780   1.417       .  A
C779       Br786   1.926       .  S
C780        C781   1.410       .  A
C780       Br785   1.934       .  S
C781        C782   1.415       .  A
C782       Br783   1.935       .  S
C787        C788   1.425       .  A
C787        C792   1.411       .  A
C787       Br794   1.929       .  S
C788        C789   1.418       .  A
C789        C790   1.411       .  A
C789       Br796   1.926       .  S
C790        C791   1.402       .  A
C790       Br795   1.917       .  S
C791        C792   1.401       .  A
C792       Br793   1.922       .  S
C797        C798   1.407       .  A
C797        C802   1.417       .  A
C797       Br804   1.916   1_655  S
C798        C799   1.408       .  A
C799        C800   1.411       .  A
C799       Br806   1.924       .  S
C800        C801   1.419       .  A
C800       Br805   1.924       .  S
C801        C802   1.418       .  A
C802       Br803   1.931       .  S
C807        C808   1.422       .  A
C807        C812   1.408       .  A
C807       Br814   1.935       .  S
C808        C809   1.419       .  A
C809        C810   1.407       .  A
C809       Br816   1.935       .  S
C810        C811   1.403       .  A
C810       Br815   1.910       .  S
C811        C812   1.410       .  A
C812       Br813   1.927       .  S
C817        C818   1.440   1_554  A
C817        C822   1.411   1_554  A
C817       Br824   1.940       .  S
C818        C819   1.413       .  A
C819        C820   1.407       .  A
C819       Br826   1.926       .  S
C820        C821   1.406       .  A
C820       Br825   1.933       .  S
C821        C822   1.399       .  A
C822       Br823   1.937       .  S
C827        C828   1.419       .  A
C827        C832   1.411       .  A
C827       Br834   1.923       .  S
C828        C829   1.407       .  A
C829        C830   1.410       .  A
C829       Br836   1.930       .  S
C830        C831   1.415       .  A
C830       Br835   1.929       .  S
C831        C832   1.407       .  A
C832       Br833   1.932       .  S
C837        C838   1.403       .  A
C837        C842   1.413       .  A
C837       Br844   1.912       .  S
C838        C839   1.408       .  A
C839        C840   1.412       .  A
C839       Br846   1.930       .  S
C840        C841   1.428       .  A
C840       Br845   1.934       .  S
C841        C842   1.421       .  A
C842       Br843   1.929       .  S
C847        C848   1.403       .  A
C847        C852   1.405       .  A
C847       Br854   1.928       .  S
C848        C849   1.422       .  A
C849        C850   1.407       .  A
C849       Br856   1.925       .  S
C850        C851   1.400       .  A
C850       Br855   1.929       .  S
C851        C852   1.411       .  A
C852       Br853   1.922       .  S
C857        C858   1.415       .  A
C857        C862   1.407       .  A
C857       Br864   1.908       .  S
C858        C859   1.406       .  A
C859        C860   1.410       .  A
C859       Br866   1.926       .  S
C860        C861   1.415       .  A
C860       Br865   1.928       .  S
C861        C862   1.407       .  A
C862       Br863   1.937       .  S
C867        C868   1.417       .  A
C867        C872   1.409   1_565  A
C867       Br874   1.927       .  S
C868        C869   1.402   1_565  A
C869        C870   1.407       .  A
C869       Br876   1.925       .  S
C870        C871   1.414       .  A
C870       Br875   1.930       .  S
C871        C872   1.407       .  A
C872       Br873   1.930       .  S
C877        C878   1.413       .  A
C877        C882   1.407       .  A
C877       Br884   1.928       .  S
C878        C879   1.407       .  A
C879        C880   1.416       .  A
C879       Br886   1.932       .  S
C880        C881   1.429       .  A
C880       Br885   1.930       .  S
C881        C882   1.412       .  A
C882       Br883   1.934       .  S
C887        C888   1.406       .  A
C887        C892   1.407       .  A
C887       Br894   1.924       .  S
C888        C889   1.418       .  A
C889        C890   1.405       .  A
C889       Br896   1.905   1_554  S
C890        C891   1.397       .  A
C890       Br895   1.930       .  S
C891        C892   1.410       .  A
C892       Br893   1.926       .  S
C897        C898   1.407       .  A
C897        C902   1.403       .  A
C897       Br904   1.932       .  S
C898        C899   1.417       .  A
C899        C900   1.407       .  A
C899       Br906   1.930       .  S
C900        C901   1.399       .  A
C900       Br905   1.921       .  S
C901        C902   1.413       .  A
C902       Br903   1.918   1_655  S
C907        C908   1.427       .  A
C907        C912   1.414       .  A
C907       Br914   1.930       .  S
C908        C909   1.408       .  A
C909        C910   1.404       .  A
C909       Br916   1.934       .  S
C910        C911   1.414       .  A
C910       Br915   1.930       .  S
C911        C912   1.406       .  A
C912       Br913   1.931       .  S
C917        C918   1.408       .  A
C917        C922   1.414       .  A
C917       Br924   1.931       .  S
C918        C919   1.415       .  A
C919        C920   1.405       .  A
C919       Br926   1.921       .  S
C920        C921   1.406       .  A
C920       Br925   1.931       .  S
C921        C922   1.418       .  A
C922       Br923   1.921       .  S
C927        C928   1.413       .  A
C927        C932   1.418       .  A
C927       Br934   1.930       .  S
C928        C929   1.401       .  A
C929        C930   1.409       .  A
C929       Br936   1.941       .  S
C930        C931   1.441       .  A
C930       Br935   1.939       .  S
C931        C932   1.416       .  A
C932       Br933   1.926       .  S
C937        C938   1.402       .  A
C937        C942   1.411   1_545  A
C937       Br944   1.938   1_545  S
C938        C939   1.414       .  A
C939        C940   1.417       .  A
C939       Br946   1.930       .  S
C940        C941   1.414   1_545  A
C940       Br945   1.929       .  S
C941        C942   1.437       .  A
C942       Br943   1.939       .  S
C947        C948   1.412       .  A
C947        C952   1.417       .  A
C947       Br954   1.927       .  S
C948        C949   1.397       .  A
C949        C950   1.409       .  A
C949       Br956   1.937       .  S
C950        C951   1.435       .  A
C950       Br955   1.928       .  S
C951        C952   1.411       .  A
C952       Br953   1.928       .  S
C957        C958   1.403       .  A
C957        C962   1.411       .  A
C957       Br964   1.926       .  S
C958        C959   1.413       .  A
C959        C960   1.408       .  A
C959       Br966   1.926       .  S
C960        C961   1.405       .  A
C960       Br965   1.924       .  S
C961        C962   1.419       .  A
C962       Br963   1.924       .  S
C967        C968   1.417       .  A
C967        C972   1.409       .  A
C967       Br974   1.927       .  S
C968        C969   1.420       .  A
C969        C970   1.407       .  A
C969       Br976   1.919       .  S
C970        C971   1.399       .  A
C970       Br975   1.922       .  S
C971        C972   1.401       .  A
C972       Br973   1.918       .  S
C977        C978   1.411       .  A
C977        C982   1.409       .  A
C977       Br984   1.934       .  S
C978        C979   1.429       .  A
C979        C980   1.420       .  A
C979       Br986   1.927       .  S
C980        C981   1.407       .  A
C980       Br985   1.930       .  S
C981        C982   1.414       .  A
C982       Br983   1.925       .  S
C987        C988   1.418       .  A
C987        C992   1.408       .  A
C987       Br994   1.928       .  S
C988        C989   1.440       .  A
C989        C990   1.413       .  A
C989       Br996   1.940       .  S
C990        C991   1.399       .  A
C990       Br995   1.935       .  S
C991        C992   1.407       .  A
C992       Br993   1.935       .  S
C997        C998   1.397       .  A
C997       C1002   1.403       .  A
C997      Br1004   1.937       .  S
C998        C999   1.412       .  A
C999       C1000   1.412       .  A
C999      Br1006   1.928       .  S
C1000      C1001   1.408       .  A
C1000     Br1005   1.930       .  S
C1001      C1002   1.430       .  A
C1002     Br1003   1.931       .  S
C1007      C1008   1.406       .  A
C1007      C1012   1.405       .  A
C1007     Br1014   1.930       .  S
C1008      C1009   1.417       .  A
C1009      C1010   1.414       .  A
C1009     Br1016   1.925       .  S
C1010      C1011   1.416       .  A
C1010     Br1015   1.935       .  S
C1011      C1012   1.418       .  A
C1012     Br1013   1.933       .  S
C1017      C1018   1.439       .  A
C1017      C1022   1.413       .  A
C1017     Br1024   1.938   1_554  S
C1018      C1019   1.415       .  A
C1019      C1020   1.414       .  A
C1019     Br1026   1.931       .  S
C1020      C1021   1.414       .  A
C1020     Br1025   1.929       .  S
C1021      C1022   1.400       .  A
C1022     Br1023   1.936       .  S
C1027      C1028   1.401   1_565  A
C1027      C1032   1.411       .  A
C1027     Br1034   1.936       .  S
C1028      C1029   1.413       .  A
C1029      C1030   1.409       .  A
C1029     Br1036   1.932       .  S
C1030      C1031   1.415   1_545  A
C1030     Br1035   1.933       .  S
C1031      C1032   1.437       .  A
C1032     Br1033   1.939       .  S
C1037      C1038   1.400   1_455  A
C1037      C1042   1.408       .  A
C1037     Br1044   1.936       .  S
C1038      C1039   1.409       .  A
C1039      C1040   1.408       .  A
C1039     Br1046   1.936       .  S
C1040      C1041   1.418   1_655  A
C1040     Br1045   1.929       .  S
C1041      C1042   1.434       .  A
C1042     Br1043   1.938       .  S
C1047      C1048   1.406       .  A
C1047      C1052   1.417       .  A
C1047     Br1054   1.929       .  S
C1048      C1049   1.411       .  A
C1049      C1050   1.410       .  A
C1049     Br1056   1.928       .  S
C1050      C1051   1.411       .  A
C1050     Br1055   1.929       .  S
C1051      C1052   1.425       .  A
C1052     Br1053   1.926       .  S
C1057      C1058   1.416       .  A
C1057      C1062   1.408       .  A
C1057     Br1064   1.928       .  S
C1058      C1059   1.410       .  A
C1059      C1060   1.409       .  A
C1059     Br1066   1.933       .  S
C1060      C1061   1.415       .  A
C1060     Br1065   1.923       .  S
C1061      C1062   1.403       .  A
C1062     Br1063   1.926       .  S
C1067      C1068   1.402       .  A
C1067      C1072   1.413       .  A
C1067     Br1074   1.916       .  S
C1068      C1069   1.401       .  A
C1069      C1070   1.413       .  A
C1069     Br1076   1.927       .  S
C1070      C1071   1.428       .  A
C1070     Br1075   1.920       .  S
C1071      C1072   1.423       .  A
C1072     Br1073   1.928       .  S
C1077      C1078   1.412       .  A
C1077      C1082   1.408       .  A
C1077     Br1084   1.931       .  S
C1078      C1079   1.427       .  A
C1079      C1080   1.415       .  A
C1079     Br1086   1.930       .  S
C1080      C1081   1.408       .  A
C1080     Br1085   1.933       .  S
C1081      C1082   1.413       .  A
C1082     Br1083   1.930       .  S
C1087      C1088   1.415       .  A
C1087      C1092   1.410       .  A
C1087     Br1094   1.929       .  S
C1088      C1089   1.434       .  A
C1089      C1090   1.409       .  A
C1089     Br1096   1.940       .  S
C1090      C1091   1.404       .  A
C1090     Br1095   1.937       .  S
C1091      C1092   1.410       .  A
C1092     Br1093   1.932       .  S
C1097      C1098   1.435       .  A
C1097      C1102   1.404       .  A
C1097     Br1104   1.929       .  S
C1098      C1099   1.410       .  A
C1099      C1100   1.412       .  A
C1099     Br1106   1.929       .  S
C1100      C1101   1.410       .  A
C1100     Br1105   1.928       .  S
C1101      C1102   1.393       .  A
C1102     Br1103   1.937       .  S
C1107      C1108   1.405       .  A
C1107      C1112   1.409       .  A
C1107     Br1114   1.931   1_545  S
C1108      C1109   1.416       .  A
C1109      C1110   1.415       .  A
C1109     Br1116   1.921       .  S
C1110      C1111   1.418       .  A
C1110     Br1115   1.936       .  S
C1111      C1112   1.421       .  A
C1112     Br1113   1.932       .  S
C1117      C1118   1.435       .  A
C1117      C1122   1.411       .  A
C1117     Br1124   1.938       .  S
C1118      C1119   1.416       .  A
C1119      C1120   1.414       .  A
C1119     Br1126   1.930       .  S
C1120      C1121   1.412       .  A
C1120     Br1125   1.928       .  S
C1121      C1122   1.401       .  A
C1122     Br1123   1.935       .  S
C1127      C1128   1.408       .  A
C1127      C1132   1.407       .  A
C1127     Br1134   1.932       .  S
C1128      C1129   1.424       .  A
C1129      C1130   1.414       .  A
C1129     Br1136   1.930       .  S
C1130      C1131   1.409       .  A
C1130     Br1135   1.932       .  S
C1131      C1132   1.415       .  A
C1132     Br1133   1.929       .  S
C1137      C1138   1.413       .  A
C1137      C1142   1.409       .  A
C1137     Br1144   1.933       .  S
C1138      C1139   1.429       .  A
C1139      C1140   1.417       .  A
C1139     Br1146   1.929       .  S
C1140      C1141   1.405       .  A
C1140     Br1145   1.931       .  S
C1141      C1142   1.411       .  A
C1142     Br1143   1.929       .  S
C1147      C1148   1.412       .  A
C1147      C1152   1.413       .  A
C1147     Br1154   1.928       .  S
C1148      C1149   1.438       .  A
C1149      C1150   1.414       .  A
C1149     Br1156   1.937       .  S
C1150      C1151   1.400       .  A
C1150     Br1155   1.933       .  S
C1151      C1152   1.412       .  A
C1152     Br1153   1.930       .  S
C1157      C1158   1.401       .  A
C1157      C1162   1.411       .  A
C1157     Br1164   1.940       .  S
C1158      C1159   1.416       .  A
C1159      C1160   1.414       .  A
C1159     Br1166   1.932       .  S
C1160      C1161   1.412       .  A
C1160     Br1165   1.929       .  S
C1161      C1162   1.444       .  A
C1162     Br1163   1.942       .  S
C1167      C1168   1.414       .  A
C1167      C1172   1.410       .  A
C1167     Br1174   1.932       .  S
C1168      C1169   1.426       .  A
C1169      C1170   1.410       .  A
C1169     Br1176   1.914       .  S
C1170      C1171   1.405       .  A
C1170     Br1175   1.938       .  S
C1171      C1172   1.415       .  A
C1172     Br1173   1.931       .  S
C1177      C1178   1.426       .  A
C1177      C1182   1.415       .  A
C1177     Br1184   1.924       .  S
C1178      C1179   1.408       .  A
C1179      C1180   1.406       .  A
C1179     Br1186   1.931       .  S
C1180      C1181   1.411       .  A
C1180     Br1185   1.919       .  S
C1181      C1182   1.404       .  A
C1182     Br1183   1.929       .  S
C1187      C1188   1.437       .  A
C1187      C1192   1.409       .  A
C1187     Br1194   1.939       .  S
C1188      C1189   1.415       .  A
C1189      C1190   1.410       .  A
C1189     Br1196   1.930       .  S
C1190      C1191   1.411       .  A
C1190     Br1195   1.933       .  S
C1191      C1192   1.399       .  A
C1192     Br1193   1.935       .  S
C1197      C1198   1.404       .  A
C1197      C1202   1.412       .  A
C1197     Br1204   1.930       .  S
C1198      C1199   1.416       .  A
C1199      C1200   1.412       .  A
C1199     Br1206   1.904       .  S
C1200      C1201   1.409       .  A
C1200     Br1205   1.935       .  S
C1201      C1202   1.421       .  A
C1202     Br1203   1.919       .  S
C1207      C1208   1.398       .  A
C1207      C1212   1.415       .  A
C1207     Br1214   1.921   1_545  S
C1208      C1209   1.401       .  A
C1209      C1210   1.412       .  A
C1209     Br1216   1.923   1_655  S
C1210      C1211   1.428       .  A
C1210     Br1215   1.927       .  S
C1211      C1212   1.423       .  A
C1212     Br1213   1.924       .  S
C1217      C1218   1.401       .  A
C1217      C1222   1.414       .  A
C1217     Br1224   1.922       .  S
C1218      C1219   1.409       .  A
C1219      C1220   1.415       .  A
C1219     Br1226   1.932       .  S
C1220      C1221   1.430       .  A
C1220     Br1225   1.932       .  S
C1221      C1222   1.428       .  A
C1222     Br1223   1.927       .  S
C1227      C1228   1.400       .  A
C1227      C1232   1.410       .  A
C1227     Br1234   1.921       .  S
C1228      C1229   1.415       .  A
C1229      C1230   1.414       .  A
C1229     Br1236   1.924       .  S
C1230      C1231   1.413       .  A
C1230     Br1235   1.929       .  S
C1231      C1232   1.418       .  A
C1232     Br1233   1.928       .  S
