geometry optimzed in LAMMPS
_audit_creation_date              2020-12-01 
_audit_creation_method            'lammps2cif' 
_symmetry_space_group_name_H-M    'P1' 
_symmetry_Int_Tables_number       1 
_symmetry_cell_setting            triclinic 
loop_ 
_symmetry_equiv_pos_as_xyz 
  x,y,z 
_cell_length_a                    55.37046917 
_cell_length_b                    55.51748145512544 
_cell_length_c                    55.44087676166177 
_cell_angle_alpha                 90.32964245031093 
_cell_angle_beta                  89.67468391353917 
_cell_angle_gamma                 89.90174950746021 
loop_ 
_atom_site_label 
_atom_site_type_symbol 
_atom_site_fract_x 
_atom_site_fract_y 
_atom_site_fract_z 
_atom_site_charge 
C1          C  0.89766474  0.89295299  0.41072426     0.79500
N2          N  0.92149937  0.88792692  0.41379787    -0.78800
C3          C  0.93816212  0.90587566  0.41406866     0.82000
N4          N  0.93091908  0.92908111  0.41180916    -0.78700
C5          C  0.90719670  0.93443250  0.40916731     0.82100
N6          N  0.89067726  0.91640515  0.40888204    -0.80400
C7          C  0.89161700  0.07610273  0.41725757     0.79500
N8          N  0.88929973  0.05266911  0.41021323    -0.78800
C9          C  0.89175156  0.03458961  0.42647823     0.82000
N10         N  0.89683729  0.04000794  0.44972957    -0.78700
C11         C  0.89928760  0.06313275  0.45704785     0.82100
N12         N  0.89639788  0.08110892  0.44083951    -0.80400
C13         C  0.07846267  0.89343103  0.43735485     0.79500
N14         N  0.05521148  0.89323878  0.42969787    -0.78800
C15         C  0.03679469  0.89799318  0.44524611     0.82000
N16         N  0.04185240  0.90321239  0.46862038    -0.78700
C17         C  0.06496975  0.90358927  0.47664634     0.82100
N18         N  0.08321091  0.89824943  0.46095954    -0.80400
C19         C  0.09216728  0.90503777  0.61697497     0.79500
N20         N  0.08876849  0.90136694  0.59293032    -0.78800
C21         C  0.08484293  0.92013594  0.57790925     0.82000
N22         N  0.08436057  0.94282869  0.58700884    -0.78700
C23         C  0.08804264  0.94683611  0.61087319     0.82100
N24         N  0.09193917  0.92795453  0.62583728    -0.80400
C25         C  0.90761132  0.09384703  0.59733714     0.79500
N26         N  0.93131350  0.09310029  0.60345053    -0.78800
C27         C  0.94877988  0.08823856  0.58695479     0.82000
N28         N  0.94228962  0.08358040  0.56389648    -0.78700
C29         C  0.91875689  0.08451069  0.55716525     0.82100
N30         N  0.90141813  0.08974203  0.57394197    -0.80400
C31         C  0.08727492  0.08767865  0.62523236     0.79500
N32         N  0.09292922  0.06417676  0.62929349    -0.78800
C33         C  0.07564363  0.04687722  0.62815724     0.82000
N34         N  0.05270328  0.05309757  0.62249503    -0.78700
C35         C  0.04700057  0.07635091  0.61795595     0.82100
N36         N  0.06430968  0.09354132  0.61905494    -0.80400
C37         C  0.38934031  0.58474733  0.60978279     0.79500
N38         N  0.39017736  0.59049491  0.58593974    -0.78800
C39         C  0.39170854  0.57303759  0.56872874     0.82000
N40         N  0.39200199  0.54961079  0.57561624    -0.78700
C41         C  0.39077272  0.54358984  0.59922923     0.82100
N42         N  0.38954737  0.56120168  0.61622715    -0.80400
C43         C  0.58314180  0.39283518  0.62122807     0.79500
N44         N  0.55951193  0.39699694  0.62668125    -0.78800
C45         C  0.54299115  0.39938434  0.60888466     0.82000
N46         N  0.55019452  0.39766120  0.58556698    -0.78700
C47         C  0.57371198  0.39413517  0.57978335     0.82100
N48         N  0.59019700  0.39160142  0.59765898    -0.80400
C49         C  0.57901994  0.56990932  0.41729601     0.79500
N50         N  0.55499587  0.57516707  0.41800658    -0.78800
C51         C  0.53841316  0.55760753  0.42161030     0.82000
N52         N  0.54582453  0.53450430  0.42423232    -0.78700
C53         C  0.56966851  0.52896166  0.42362127     0.82100
N54         N  0.58618307  0.54668993  0.42027806    -0.80400
C55         C  0.58983987  0.38803781  0.43694358     0.79500
N56         N  0.58943489  0.38299207  0.46093722    -0.78800
C57         C  0.58788125  0.40109777  0.47755114     0.82000
N58         N  0.58673827  0.42431682  0.47008418    -0.78700
C59         C  0.58678856  0.42956266  0.44622422     0.82100
N60         N  0.58854889  0.41141304  0.42991541    -0.80400
C61         C  0.39727791  0.58555573  0.42569879     0.79500
N62         N  0.39063840  0.58721326  0.44928991    -0.78800
C63         C  0.40736144  0.58642228  0.46700423     0.82000
N64         N  0.43095141  0.58388837  0.46114957    -0.78700
C65         C  0.43811929  0.58215723  0.43775114     0.82100
N66         N  0.42118078  0.58293027  0.42006633    -0.80400
C67         C  0.40016040  0.40344947  0.62254070     0.79500
N68         N  0.39353336  0.42694944  0.62134590    -0.78800
C69         C  0.41037026  0.44453844  0.61941949     0.82000
N70         N  0.43409935  0.43862229  0.61852303    -0.78700
C71         C  0.44102329  0.41524634  0.61945615     0.82100
N72         N  0.42406556  0.39778341  0.62157613    -0.80400
C73         C  0.58976192  0.08855145  0.92285346     0.79500
N74         N  0.59632216  0.08934496  0.94650528    -0.78800
C75         C  0.57991715  0.08427786  0.96403452     0.82000
N76         N  0.55706937  0.07850648  0.95797519    -0.78700
C77         C  0.55027130  0.07731806  0.93464622     0.82100
N78         N  0.56653069  0.08280187  0.91704266    -0.80400
C79         C  0.57270796  0.90910002  0.12983506     0.79500
N80         N  0.54918881  0.90220631  0.13214576    -0.78800
C81         C  0.53105876  0.91859606  0.13011831     0.82000
N82         N  0.53665656  0.94190314  0.12569875    -0.78700
C83         C  0.55985785  0.94899098  0.12293244     0.82100
N84         N  0.57785303  0.93253526  0.12507933    -0.80400
C85         C  0.59110288  0.08763665  0.10639435     0.79500
N86         N  0.58681683  0.06460740  0.11362537    -0.78800
C87         C  0.58273880  0.04686021  0.09720159     0.82000
N88         N  0.58292319  0.05214115  0.07338010    -0.78700
C89         C  0.58718782  0.07493155  0.06594723     0.82100
N90         N  0.59131370  0.09253188  0.08243882    -0.80400
C91         C  0.39487874  0.89450158  0.93554355     0.79500
N92         N  0.39659346  0.88940599  0.95954580    -0.78800
C93         C  0.39824600  0.90757673  0.97602663     0.82000
N94         N  0.39773158  0.93074918  0.96855301    -0.78700
C95         C  0.39550663  0.93607529  0.94491051     0.82100
N96         N  0.39425358  0.91790934  0.92852518    -0.80400
C97         C  0.38867245  0.90072406  0.11878672     0.79500
N98         N  0.41125028  0.90242497  0.12819520    -0.78800
C99         C  0.43087559  0.90326318  0.11351618     0.82000
N100        N  0.42805627  0.90207177  0.08935578    -0.78700
C101        C  0.40581396  0.90025713  0.07948722     0.82100
N102        N  0.38611755  0.89962221  0.09429487    -0.80400
C103        C  0.40835726  0.07626242  0.92140437     0.79500
N104        N  0.43265475  0.08012097  0.92088535    -0.78800
C105        C  0.44840982  0.06130955  0.92155445     0.82000
N106        N  0.43978093  0.03855334  0.92257469    -0.78700
C107        C  0.41574337  0.03435549  0.92263751     0.82100
N108        N  0.40010927  0.05318486  0.92239659    -0.80400
In109      In  0.66620592  0.31428988  0.33979489     1.36900
C110        C  0.62587910  0.32809120  0.36215595     0.76900
O111        O  0.66623853  0.29301233  0.37413971    -0.61600
O112        O  0.69660333  0.31488894  0.36730884    -0.52500
C113        C  0.66944040  0.28005400  0.30429718     0.69500
O114        O  0.64989197  0.28980992  0.31080670    -0.47300
C115        C  0.68165644  0.35789641  0.32519791     0.74300
O116        O  0.63481489  0.30742485  0.36490606    -0.59200
O117        O  0.69356258  0.34441832  0.33910562    -0.49300
O118        O  0.63548800  0.34003049  0.34545240    -0.55600
C119        C  0.68603193  0.30096838  0.38191028     0.84400
O120        O  0.68726903  0.28816113  0.31567352    -0.57500
O121        O  0.66234920  0.34840332  0.31780194    -0.60800
C122        C  0.73750789  0.24289261  0.50397506     0.79500
N123        N  0.74967541  0.22508856  0.49156111    -0.78800
C124        C  0.74780086  0.22356628  0.46701950     0.82000
N125        N  0.73478572  0.24010982  0.45514562    -0.78700
C126        C  0.72325008  0.25811277  0.46674742     0.82100
N127        N  0.72444124  0.25962689  0.49132314    -0.80400
In128      In  0.80807887  0.16639068  0.34019888     1.36900
C129        C  0.84753773  0.14746405  0.35994018     0.76900
O130        O  0.80863157  0.19159967  0.37195841    -0.61600
O131        O  0.77805589  0.16918726  0.36831834    -0.52500
C132        C  0.80802823  0.20191811  0.30631313     0.69500
O133        O  0.82636787  0.19565492  0.31804214    -0.47300
C134        C  0.79203176  0.12306241  0.32523560     0.74300
O135        O  0.84576035  0.14993236  0.33739533    -0.59200
O136        O  0.77934293  0.13744863  0.33770488    -0.49300
O137        O  0.83018643  0.15607230  0.37178074    -0.55600
C138        C  0.78909040  0.18442103  0.38127065     0.84400
O139        O  0.78950785  0.18994548  0.31195540    -0.57500
O140        O  0.81191984  0.13186850  0.31872991    -0.60800
In141      In  0.67440412  0.16748899  0.19648562     1.36900
C142        C  0.63495142  0.15046061  0.17522828     0.76900
O143        O  0.67673941  0.18811037  0.16149319    -0.61600
O144        O  0.70465865  0.16343646  0.16906273    -0.52500
C145        C  0.67268550  0.20299137  0.23104581     0.69500
O146        O  0.65448081  0.19252563  0.22260680    -0.47300
C147        C  0.69204412  0.12529770  0.21232264     0.74300
O148        O  0.64454894  0.17010088  0.16916344    -0.59200
O149        O  0.70491961  0.14104216  0.20212465    -0.49300
O150        O  0.64383388  0.14133490  0.19391308    -0.55600
C151        C  0.69551929  0.17760897  0.15389656     0.84400
O152        O  0.69207972  0.19509904  0.22200312    -0.57500
O153        O  0.67056064  0.13207224  0.21600525    -0.60800
In154      In  0.80724723  0.31270309  0.19848124     1.36900
C155        C  0.84163193  0.33771725  0.17759842     0.76900
O156        O  0.81677349  0.28767170  0.16789019    -0.61600
O157        O  0.78184385  0.30325770  0.16806062    -0.52500
C158        C  0.80637224  0.27768599  0.23247361     0.69500
O159        O  0.82553026  0.28762714  0.22505183    -0.47300
C160        C  0.79042219  0.35404662  0.21746193     0.74300
O161        O  0.84652661  0.32345984  0.19468883    -0.59200
O162        O  0.77766657  0.34078659  0.20390808    -0.49300
O163        O  0.81986500  0.33839251  0.17131945    -0.55600
C164        C  0.79723587  0.29057316  0.15668300     0.84400
O165        O  0.78755118  0.28605790  0.22276187    -0.57500
O166        O  0.81018526  0.34453081  0.22329530    -0.60800
C167        C  0.75321585  0.22981905  0.03298093     0.79500
N168        N  0.76718441  0.24580661  0.04570386    -0.78800
C169        C  0.76898691  0.24387042  0.07014250     0.82000
N170        N  0.75699291  0.22631935  0.08160974    -0.78700
C171        C  0.74301662  0.21046641  0.06976665     0.82100
N172        N  0.74061734  0.21233465  0.04526312    -0.80400
C173        C  0.73825889  0.00086573  0.27001291     0.79500
N174        N  0.75155879  0.01272719  0.28727899    -0.78800
C175        C  0.75293160  0.03731841  0.28700891     0.82000
N176        N  0.74150948  0.04964316  0.26972221    -0.78700
C177        C  0.72838522  0.03860046  0.25268246     0.82100
N178        N  0.72646106  0.01404981  0.25274546    -0.80400
C179        C  0.73470471  0.47847471  0.26665190     0.79500
N180        N  0.72138341  0.46636537  0.28365695    -0.78800
C181        C  0.72490102  0.44223172  0.28682632     0.82000
N182        N  0.74090032  0.43044000  0.27276373    -0.78700
C183        C  0.75366772  0.44173095  0.25555645     0.82100
N184        N  0.75062607  0.46588447  0.25226336    -0.80400
In185      In  0.80386520  0.80705541  0.34024351     1.36900
C186        C  0.82647600  0.82560976  0.37862548     0.76900
O187        O  0.83475951  0.78099306  0.33597084    -0.61600
O188        O  0.83266479  0.80950319  0.31097975    -0.52500
C189        C  0.76749276  0.77358758  0.33986659     0.69500
O190        O  0.77903635  0.77941657  0.35855259    -0.47300
C191        C  0.78872993  0.84983396  0.32384655     0.74300
O192        O  0.80570701  0.83216453  0.37236982    -0.59200
O193        O  0.80192843  0.83580935  0.31142674    -0.49300
O194        O  0.83366941  0.80689533  0.36791848    -0.55600
C195        C  0.84490678  0.79202069  0.31886119     0.84400
O196        O  0.77476041  0.78466184  0.32145061    -0.57500
O197        O  0.78209135  0.84110865  0.34378451    -0.60800
In198      In  0.65962402  0.81348982  0.19339223     1.36900
C199        C  0.64012643  0.83623949  0.15605122     0.76900
O200        O  0.62717287  0.78920796  0.19434141    -0.61600
O201        O  0.63060553  0.81448868  0.22272897    -0.52500
C202        C  0.69286256  0.77731907  0.19228200     0.69500
O203        O  0.68254497  0.78532056  0.17377443    -0.47300
C204        C  0.67813198  0.85451465  0.21144216     0.74300
O205        O  0.63060239  0.81800196  0.16538401    -0.59200
O206        O  0.66200225  0.84254182  0.22231341    -0.49300
O207        O  0.66136424  0.84010736  0.16289173    -0.55600
C208        C  0.61762001  0.79845868  0.21292079     0.84400
O209        O  0.68589488  0.78763834  0.21141777    -0.57500
O210        O  0.68597387  0.84433262  0.19255578    -0.60800
C211        C  0.73695616  0.97382412  0.26975400     0.79500
N212        N  0.72249276  0.96201906  0.25344024    -0.78800
C213        C  0.72191209  0.93739035  0.25299284     0.82000
N214        N  0.73549478  0.92489899  0.26858439    -0.78700
C215        C  0.74973328  0.93595714  0.28475654     0.82100
N216        N  0.75064759  0.96055443  0.28546623    -0.80400
In217      In  0.80292451  0.66804703  0.19143926     1.36900
C218        C  0.82468316  0.65190903  0.15170619     0.76900
O219        O  0.83376817  0.69392906  0.19646928    -0.61600
O220        O  0.83409807  0.66262832  0.21779839    -0.52500
C221        C  0.76717786  0.70173215  0.19301381     0.69500
O222        O  0.77712040  0.69444993  0.17381036    -0.47300
C223        C  0.78565056  0.62587081  0.20657708     0.74300
O224        O  0.82867340  0.67248721  0.16038934    -0.59200
O225        O  0.79914188  0.63895660  0.21958769    -0.49300
O226        O  0.80674454  0.64146553  0.16075970    -0.55600
C227        C  0.84541809  0.68120065  0.21113131     0.84400
O228        O  0.77558374  0.69171719  0.21151155    -0.57500
O229        O  0.77987283  0.63542854  0.18684832    -0.60800
C230        C  0.73134382  0.50494187  0.26314305     0.79500
N231        N  0.71360217  0.51728532  0.27545493    -0.78800
C232        C  0.71018420  0.54129713  0.27132397     0.82000
N233        N  0.72489933  0.55279913  0.25580004    -0.78700
C234        C  0.74289854  0.54124032  0.24412679     0.82100
N235        N  0.74632608  0.51721949  0.24778142    -0.80400
C236        C  0.96799393  0.73640218  0.26531924     0.79500
N237        N  0.95496919  0.75369457  0.27759106    -0.78800
C238        C  0.93035999  0.75431662  0.27573862     0.82000
N239        N  0.91899194  0.73741321  0.26263785    -0.78700
C240        C  0.93113592  0.71992320  0.25091452     0.82100
N241        N  0.95584259  0.71941207  0.25187265    -0.80400
In242      In  0.65615047  0.66548443  0.33965576     1.36900
C243        C  0.63776053  0.64443530  0.37868698     0.76900
O244        O  0.62375187  0.69024219  0.34025382    -0.61600
O245        O  0.62719925  0.66572044  0.31113053    -0.52500
C246        C  0.69105932  0.70019329  0.34026239     0.69500
O247        O  0.68057330  0.69256062  0.35890833    -0.47300
C248        C  0.67072251  0.62353863  0.31948842     0.74300
O249        O  0.65979696  0.64278856  0.37307282    -0.59200
O250        O  0.65911937  0.63938468  0.30805982    -0.49300
O251        O  0.62607459  0.65911737  0.36613253    -0.55600
C252        C  0.61435376  0.68163810  0.32133800     0.84400
O253        O  0.68338182  0.69047616  0.32122306    -0.57500
O254        O  0.67601731  0.62996455  0.34058484    -0.60800
C255        C  0.49472412  0.74506372  0.27053484     0.79500
N256        N  0.50663030  0.72785800  0.28360143    -0.78800
C257        C  0.53121387  0.72637263  0.28248207     0.82000
N258        N  0.54366185  0.74206855  0.26886743    -0.78700
C259        C  0.53251130  0.75933356  0.25615570     0.82100
N260        N  0.50786050  0.76088796  0.25672309    -0.80400
In261      In  0.30257893  0.81797276  0.20136792     1.36900
C262        C  0.31857710  0.85814298  0.18014297     0.76900
O263        O  0.33705680  0.82251181  0.22193756    -0.61600
O264        O  0.33213119  0.78945528  0.20363535    -0.52500
C265        C  0.26838211  0.81596982  0.23718412     0.69500
O266        O  0.27576911  0.83523704  0.22788107    -0.47300
C267        C  0.28802908  0.79851069  0.15929584     0.74300
O268        O  0.32633739  0.85116132  0.20024749    -0.59200
O269        O  0.30478596  0.78941753  0.17171941    -0.49300
O270        O  0.30054687  0.84658639  0.17292286    -0.55600
C271        C  0.34601081  0.80236166  0.21635518     0.84400
O272        O  0.27860810  0.79768435  0.22822275    -0.57500
O273        O  0.27773576  0.81614267  0.16954162    -0.60800
C274        C  0.23403571  0.74510240  0.03547181     0.79500
N275        N  0.24994974  0.75920546  0.04822831    -0.78800
C276        C  0.24882150  0.75971581  0.07287266     0.82000
N277        N  0.23190669  0.74671947  0.08434275    -0.78700
C278        C  0.21608016  0.73293993  0.07227231     0.82100
N279        N  0.21711807  0.73184103  0.04771389    -0.80400
In280      In  0.16354849  0.66816096  0.19674667     1.36900
C281        C  0.14732631  0.62947004  0.17294012     0.76900
O282        O  0.12882916  0.66465841  0.21823760    -0.61600
O283        O  0.13394548  0.69645494  0.19827516    -0.52500
C284        C  0.19833650  0.66691117  0.23186513     0.69500
O285        O  0.18896108  0.64844644  0.22258367    -0.47300
C286        C  0.17711888  0.69057878  0.15621618     0.74300
O287        O  0.16651353  0.64005049  0.16709742    -0.59200
O288        O  0.16277287  0.70003674  0.17134294    -0.49300
O289        O  0.13845020  0.63675843  0.19264758    -0.55600
C290        C  0.11975484  0.68428736  0.21126605     0.84400
O291        O  0.18958086  0.68607284  0.22355021    -0.57500
O292        O  0.18589635  0.67078344  0.16304660    -0.60800
In293      In  0.15840415  0.80547380  0.34684153     1.36900
C294        C  0.13952556  0.84007897  0.37403746     0.76900
O295        O  0.12464935  0.81076983  0.32415184    -0.61600
O296        O  0.12906476  0.77728191  0.34107837    -0.52500
C297        C  0.19258559  0.80811935  0.31158314     0.69500
O298        O  0.18419663  0.82633472  0.32252797    -0.47300
C299        C  0.18319520  0.78701317  0.38424829     0.74300
O300        O  0.14929617  0.84474919  0.35390430    -0.59200
O301        O  0.16886731  0.77459385  0.37150458    -0.49300
O302        O  0.13917055  0.81813132  0.37948815    -0.55600
C303        C  0.11547225  0.79050102  0.32853298     0.84400
O304        O  0.18288449  0.78869984  0.31826239    -0.57500
O305        O  0.18597253  0.80817601  0.37660983    -0.60800
C306        C  0.99516690  0.73610801  0.26660535     0.79500
N307        N  0.00835435  0.72191810  0.25097524    -0.78800
C308        C  0.03301099  0.72182206  0.25206252     0.82000
N309        N  0.04424719  0.73553060  0.26864388    -0.78700
C310        C  0.03186938  0.74960111  0.28424052     0.82100
N311        N  0.00715504  0.75015023  0.28322496    -0.80400
In312      In  0.30921479  0.65910977  0.34022616     1.36900
C313        C  0.33066207  0.61929192  0.35593262     0.76900
O314        O  0.34463403  0.66184165  0.32050525    -0.61600
O315        O  0.33135071  0.69324403  0.33778907    -0.52500
C316        C  0.27403279  0.66073582  0.30573444     0.69500
O317        O  0.28509672  0.64178637  0.31146186    -0.47300
C318        C  0.29672263  0.67314697  0.38516224     0.74300
O319        O  0.33831528  0.63091998  0.33805952    -0.59200
O320        O  0.31384974  0.68239760  0.37336199    -0.49300
O321        O  0.30995666  0.62571662  0.36304814    -0.55600
C322        C  0.34854667  0.68352783  0.32619043     0.84400
O323        O  0.28114790  0.67887231  0.31741127    -0.57500
O324        O  0.28502307  0.65763744  0.37333109    -0.60800
C325        C  0.24374458  0.73276724  0.50587425     0.79500
N326        N  0.22892446  0.74733690  0.49233010    -0.78800
C327        C  0.22944811  0.74576280  0.46762546     0.82000
N328        N  0.24445726  0.72993867  0.45688579    -0.78700
C329        C  0.25909607  0.71555450  0.46965395     0.82100
N330        N  0.25890287  0.71684836  0.49425355    -0.80400
C331        C  0.46769573  0.74623706  0.27114805     0.79500
N332        N  0.45547777  0.76113698  0.25573412    -0.78800
C333        C  0.43081761  0.76165957  0.25614451     0.82000
N334        N  0.41868129  0.74779914  0.27188151    -0.78700
C335        C  0.43018341  0.73307939  0.28720905     0.82100
N336        N  0.45483830  0.73201245  0.28681911    -0.80400
In337      In  0.31604945  0.81215582  0.84658637     1.36900
C338        C  0.35585143  0.82757051  0.86889720     0.76900
O339        O  0.31967307  0.84653399  0.82555911    -0.61600
O340        O  0.28714339  0.84097513  0.84481865    -0.52500
C341        C  0.31448791  0.77797283  0.81119575     0.69500
O342        O  0.33386767  0.78561156  0.82023027    -0.47300
C343        C  0.29521070  0.79606263  0.88716100     0.74300
O344        O  0.34906843  0.83586487  0.84895240    -0.59200
O345        O  0.28742911  0.81443712  0.87624495    -0.49300
O346        O  0.34417775  0.80943001  0.87552908    -0.55600
C347        C  0.29949464  0.85513203  0.83194405     0.84400
O348        O  0.29616459  0.78839991  0.81980379    -0.57500
O349        O  0.31242217  0.78567202  0.87638298    -0.60800
In350      In  0.16868383  0.67170323  0.84230561     1.36900
C351        C  0.12999406  0.64908583  0.85956404     0.76900
O352        O  0.16961886  0.63724151  0.82088768    -0.61600
O353        O  0.19778249  0.64323607  0.84572623    -0.52500
C354        C  0.17034028  0.70598146  0.80697885     0.69500
O355        O  0.15128722  0.69936851  0.81751934    -0.47300
C356        C  0.18407671  0.68978514  0.88439772     0.74300
O357        O  0.13730578  0.64606167  0.83819665    -0.59200
O358        O  0.19704016  0.67595719  0.87145196    -0.49300
O359        O  0.13969781  0.66650287  0.87031755    -0.55600
C360        C  0.18795177  0.62868744  0.83118730     0.84400
O361        O  0.18871451  0.69492676  0.81447276    -0.57500
O362        O  0.16425836  0.69543964  0.87481152    -0.60800
C363        C  0.23478393  0.74435473  0.00850396     0.79500
N364        N  0.22020863  0.72868146  0.99599795    -0.78800
C365        C  0.22115218  0.72805866  0.97137851     0.82000
N366        N  0.23602241  0.74307337  0.95960873    -0.78700
C367        C  0.25025838  0.75871035  0.97138650     0.82100
N368        N  0.24997398  0.75935188  0.99599643    -0.80400
In369      In  0.17679441  0.81423550  0.69637605     1.36900
C370        C  0.14058225  0.83499994  0.67327374     0.76900
O371        O  0.17322867  0.84843962  0.71831607    -0.61600
O372        O  0.20655855  0.84214116  0.70098226    -0.52500
C373        C  0.17563402  0.78007784  0.73144549     0.69500
O374        O  0.15702642  0.78787105  0.72098034    -0.47300
C375        C  0.19277863  0.79200320  0.65621045     0.74300
O376        O  0.13755860  0.82645729  0.69419076    -0.59200
O377        O  0.20564522  0.80649841  0.66826329    -0.49300
O378        O  0.16147773  0.83244312  0.66476616    -0.55600
C379        C  0.19379956  0.85664785  0.71327512     0.84400
O380        O  0.19478295  0.79005093  0.72415358    -0.57500
O381        O  0.17286020  0.78711560  0.66621482    -0.60800
C382        C  0.24348315  0.73401618  0.53305300     0.79500
N383        N  0.22908763  0.75051176  0.54493214    -0.78800
C384        C  0.22915054  0.75148566  0.56958848     0.82000
N385        N  0.24306526  0.73620025  0.58200963    -0.78700
C386        C  0.25723212  0.71983559  0.57104028     0.82100
N387        N  0.25773670  0.71867058  0.54635255    -0.80400
C388        C  0.24934982  0.97729632  0.77297365     0.79500
N389        N  0.26261467  0.96453489  0.78939616    -0.78800
C390        C  0.26165747  0.93997207  0.78948639     0.82000
N391        N  0.24794281  0.92837147  0.77322036    -0.78700
C392        C  0.23493648  0.94033526  0.75672205     0.82100
N393        N  0.23545123  0.96499250  0.75649778    -0.80400
In394      In  0.31099497  0.66717064  0.70219306     1.36900
C395        C  0.34945087  0.64806710  0.68004030     0.76900
O396        O  0.31164843  0.63526793  0.72683747    -0.61600
O397        O  0.27995288  0.64081126  0.70642179    -0.52500
C398        C  0.31257364  0.70151278  0.73748075     0.69500
O399        O  0.33035521  0.68866845  0.73132285    -0.47300
C400        C  0.29413981  0.68329965  0.65954477     0.74300
O401        O  0.33574636  0.63610575  0.69349296    -0.59200
O402        O  0.28354038  0.66691900  0.67130525    -0.49300
O403        O  0.34555885  0.67039640  0.68048748    -0.55600
C404        C  0.29122040  0.62719044  0.72078393     0.84400
O405        O  0.29368360  0.69640214  0.72590210    -0.57500
O406        O  0.31190821  0.69207050  0.67053103    -0.60800
C407        C  0.24339262  0.50453765  0.78280960     0.79500
N408        N  0.25658414  0.51723769  0.76600571    -0.78800
C409        C  0.25442798  0.54181452  0.76497344     0.82000
N410        N  0.23975505  0.55325098  0.78061327    -0.78700
C411        C  0.22690387  0.54133052  0.79727861     0.82100
N412        N  0.22850033  0.51684694  0.79849604    -0.80400
In413      In  0.82085437  0.31188123  0.84379900     1.36900
C414        C  0.84217997  0.35063777  0.86255169     0.76900
O415        O  0.79658620  0.31113019  0.87681855    -0.61600
O416        O  0.82325006  0.28409106  0.87357940    -0.52500
C417        C  0.78575704  0.31274170  0.80934656     0.69500
O418        O  0.79433972  0.33134013  0.81912316    -0.47300
C419        C  0.86191185  0.29145095  0.82738986     0.74300
O420        O  0.82296819  0.34211655  0.87116955    -0.59200
O421        O  0.84650527  0.28015317  0.83986993    -0.49300
O422        O  0.84835975  0.34154210  0.84262080    -0.55600
C423        C  0.80679282  0.29334310  0.88652351     0.84400
O424        O  0.79519580  0.29365506  0.81707464    -0.57500
O425        O  0.85533697  0.31253327  0.82211114    -0.60800
In426      In  0.82101642  0.17246184  0.69036484     1.36900
C427        C  0.84350215  0.13877964  0.66499404     0.76900
O428        O  0.79640905  0.16845238  0.65818377    -0.61600
O429        O  0.81247954  0.20240130  0.66456822    -0.52500
C430        C  0.78835039  0.17201356  0.72725232     0.69500
O431        O  0.79907796  0.15335434  0.71955822    -0.47300
C432        C  0.86290885  0.18761816  0.70935657     0.74300
O433        O  0.82632252  0.13322281  0.67913486    -0.59200
O434        O  0.84956463  0.20087187  0.69661871    -0.49300
O435        O  0.84827706  0.16085956  0.66391636    -0.55600
C436        C  0.80015040  0.18944291  0.65039553     0.84400
O437        O  0.79394779  0.19072585  0.71564563    -0.57500
O438        O  0.85348760  0.16758290  0.71443109    -0.60800
C439        C  0.98471606  0.23820605  0.76873576     0.79500
N440        N  0.97280182  0.22397783  0.75230128    -0.78800
C441        C  0.94813009  0.22332680  0.75236160     0.82000
N442        N  0.93570477  0.23635291  0.76874459    -0.78700
C443        C  0.94686991  0.25033032  0.78507565     0.82100
N444        N  0.97152812  0.25155305  0.78510883    -0.80400
In445      In  0.67647238  0.31541390  0.69959129     1.36900
C446        C  0.65402287  0.35505067  0.68498101     0.76900
O447        O  0.69748371  0.32012176  0.66482390    -0.61600
O448        O  0.67701905  0.28828285  0.66895792    -0.52500
C449        C  0.71191903  0.31336722  0.73369421     0.69500
O450        O  0.70180264  0.33255433  0.72715844    -0.47300
C451        C  0.63468399  0.29504174  0.71369756     0.74300
O452        O  0.64837548  0.34413048  0.70397371    -0.59200
O453        O  0.64772737  0.28613852  0.69711319    -0.49300
O454        O  0.67369634  0.34820621  0.67573514    -0.55600
C455        C  0.68987547  0.30098225  0.65505839     0.84400
O456        O  0.70411987  0.29513802  0.72258038    -0.57500
O457        O  0.64419181  0.31290429  0.72406041    -0.60800
In458      In  0.67888886  0.17082549  0.83819302     1.36900
C459        C  0.65560238  0.13277571  0.85588266     0.76900
O460        O  0.70065035  0.16775365  0.87213457    -0.61600
O461        O  0.68016505  0.19953634  0.86742757    -0.52500
C462        C  0.71502844  0.17256003  0.80444294     0.69500
O463        O  0.70806981  0.15333916  0.81430491    -0.47300
C464        C  0.63690032  0.18922462  0.82274059     0.74300
O465        O  0.65138437  0.14087790  0.83521064    -0.59200
O466        O  0.64953736  0.19943556  0.83876326    -0.49300
O467        O  0.67442763  0.14112170  0.86531688    -0.55600
C468        C  0.69343100  0.18735063  0.88134195     0.84400
O469        O  0.70381123  0.19079439  0.81218930    -0.57500
O470        O  0.64700767  0.17101310  0.81336023    -0.60800
C471        C  0.51243474  0.24236259  0.77126718     0.79500
N472        N  0.52501860  0.22694333  0.78593704    -0.78800
C473        C  0.54966844  0.22597803  0.78447319     0.82000
N474        N  0.56137484  0.24019466  0.76876130    -0.78700
C475        C  0.54951572  0.25550929  0.75434952     0.82100
N476        N  0.52491854  0.25677236  0.75549445    -0.80400
C477        C  0.75157636  0.23198402  0.00605755     0.79500
N478        N  0.73454079  0.21931335  0.99330051    -0.78800
C479        C  0.73302255  0.22206881  0.96885147     0.82000
N480        N  0.74860930  0.23669213  0.95742908    -0.78700
C481        C  0.76578643  0.24887819  0.96936972     0.82100
N482        N  0.76735651  0.24670323  0.99384652    -0.80400
C483        C  0.73927275  0.24473077  0.53093180     0.79500
N484        N  0.75523791  0.23052464  0.54338819    -0.78800
C485        C  0.75722591  0.23298764  0.56785784     0.82000
N486        N  0.74321536  0.24913793  0.57957702    -0.78700
C487        C  0.72720612  0.26301863  0.56787198     0.82100
N488        N  0.72507964  0.26090146  0.54342175    -0.80400
In489      In  0.32328155  0.16716581  0.84838665     1.36900
C490        C  0.34251420  0.14707890  0.88760802     0.76900
O491        O  0.30079011  0.13308884  0.84797441    -0.61600
O492        O  0.32477730  0.13860908  0.81892032    -0.52500
C493        C  0.28717333  0.20075307  0.84707075     0.69500
O494        O  0.29614680  0.19285484  0.86630702    -0.47300
C495        C  0.36461132  0.18468501  0.82949208     0.74300
O496        O  0.32196355  0.14160530  0.87982759    -0.59200
O497        O  0.35232057  0.16821741  0.81965603    -0.49300
O498        O  0.35148102  0.16526799  0.87756439    -0.55600
C499        C  0.30978207  0.12459132  0.82877715     0.84400
O500        O  0.29687374  0.19174072  0.82850206    -0.57500
O501        O  0.35497153  0.19303083  0.84852135    -0.60800
C502        C  0.25057782  0.00432311  0.77279036     0.79500
N503        N  0.26681571  0.01628575  0.78723121    -0.78800
C504        C  0.26819006  0.04087313  0.78655568     0.82000
N505        N  0.25351267  0.05314521  0.77177936    -0.78700
C506        C  0.23739956  0.04193875  0.75758836     0.82100
N507        N  0.23581122  0.01738223  0.75791285    -0.80400
In508      In  0.17907606  0.16877151  0.70078410     1.36900
C509        C  0.15892643  0.15109935  0.66100661     0.76900
O510        O  0.20327060  0.13613930  0.69849209    -0.61600
O511        O  0.18018731  0.13943532  0.72888555    -0.52500
C512        C  0.21314025  0.20406693  0.70237324     0.69500
O513        O  0.20433409  0.19606229  0.68305237    -0.47300
C514        C  0.13635785  0.18169895  0.72046597     0.74300
O515        O  0.15410814  0.17177508  0.66915846    -0.59200
O516        O  0.15121908  0.16820230  0.73110626    -0.49300
O517        O  0.17649888  0.14106788  0.67112313    -0.55600
C518        C  0.19544471  0.12658078  0.71764771     0.84400
O519        O  0.20460066  0.19399512  0.72080181    -0.57500
O520        O  0.14417872  0.18961925  0.70067577    -0.60800
In521      In  0.17519860  0.30849848  0.84403422     1.36900
C522        C  0.15310551  0.32469753  0.88390069     0.76900
O523        O  0.20043381  0.33979624  0.84808722    -0.61600
O524        O  0.17488285  0.34189677  0.82011453    -0.52500
C525        C  0.21039908  0.27384471  0.84312409     0.69500
O526        O  0.19955369  0.28073674  0.86196463    -0.47300
C527        C  0.13395200  0.29515930  0.82222770     0.74300
O528        O  0.14705059  0.30551525  0.87341249    -0.59200
O529        O  0.14931613  0.30868935  0.81211298    -0.49300
O530        O  0.17256257  0.33344819  0.87621069    -0.55600
C531        C  0.19130375  0.35260036  0.83179167     0.84400
O532        O  0.20291172  0.28434485  0.82449032    -0.57500
O533        O  0.14091867  0.28712425  0.84224327    -0.60800
C534        C  0.01180295  0.23885655  0.76901610     0.79500
N535        N  0.02493976  0.22161870  0.75677136    -0.78800
C536        C  0.04960092  0.22208456  0.75746160     0.82000
N537        N  0.06079428  0.23967893  0.76974653    -0.78700
C538        C  0.04847317  0.25683979  0.78174013     0.82100
N539        N  0.02377657  0.25642180  0.78180282    -0.80400
In540      In  0.31909067  0.31657147  0.70700632     1.36900
C541        C  0.33739960  0.33619281  0.66733146     0.76900
O542        O  0.29916961  0.35188122  0.70946355    -0.61600
O543        O  0.31945215  0.34154923  0.73981175    -0.52500
C544        C  0.28332988  0.28284314  0.70549200     0.69500
O545        O  0.28979129  0.29517782  0.68767608    -0.47300
C546        C  0.36241294  0.29970497  0.72105729     0.74300
O547        O  0.34254267  0.31518545  0.67387488    -0.59200
O548        O  0.35008240  0.31424629  0.73374260    -0.49300
O549        O  0.32065004  0.34588576  0.67937989    -0.55600
C550        C  0.30658797  0.35765630  0.73018277     0.84400
O551        O  0.29467438  0.28825649  0.72439254    -0.57500
O552        O  0.35186942  0.29304501  0.70211455    -0.60800
C553        C  0.48538458  0.24343526  0.77223143     0.79500
N554        N  0.47261166  0.22825773  0.78703744    -0.78800
C555        C  0.44794834  0.22929000  0.78757462     0.82000
N556        N  0.43636149  0.24513137  0.77348031    -0.78700
C557        C  0.44841599  0.26014307  0.75876909     0.82100
N558        N  0.47306148  0.25932080  0.75788513    -0.80400
C559        C  0.24541362  0.47760607  0.78462653     0.79500
N560        N  0.22949509  0.46506516  0.79893773    -0.78800
C561        C  0.23190338  0.44070439  0.80138083     0.82000
N562        N  0.24993847  0.42918717  0.78978062    -0.78700
C563        C  0.26557488  0.44086138  0.77537261     0.82100
N564        N  0.26327596  0.46523214  0.77244571    -0.80400
C565        C  0.90675669  0.38868480  0.93270475     0.79500
N566        N  0.93101089  0.39080565  0.92996839    -0.78800
C567        C  0.94560367  0.39304330  0.94938376     0.82000
N568        N  0.93583293  0.39382048  0.97183553    -0.78700
C569        C  0.91150952  0.39231559  0.97485202     0.82100
N570        N  0.89701903  0.38991770  0.95527726    -0.80400
C571        C  0.88061435  0.40612075  0.11350072     0.79500
N572        N  0.88349924  0.42997595  0.11828375    -0.78800
C573        C  0.88671437  0.44584818  0.10005102     0.82000
N574        N  0.88709876  0.43792351  0.07692021    -0.78700
C575        C  0.88411213  0.41425800  0.07183181     0.82100
N576        N  0.88123574  0.39840036  0.09014435    -0.80400
C577        C  0.09693200  0.57547926  0.92377442     0.79500
N578        N  0.09903872  0.55147730  0.91899244    -0.78800
C579        C  0.09579296  0.53492909  0.93667553     0.82000
N580        N  0.08960884  0.54248545  0.95909089    -0.78700
C581        C  0.08723149  0.56619971  0.96425855     0.82100
N582        N  0.09118137  0.58270812  0.94668077    -0.80400
C583        C  0.89760353  0.58809055  0.11635527     0.79500
N584        N  0.89077370  0.56453404  0.11503481    -0.78800
C585        C  0.90756317  0.54684961  0.11223030     0.82000
N586        N  0.93113034  0.55304032  0.11063760    -0.78700
C587        C  0.93825337  0.57626741  0.11154831     0.82100
N588        N  0.92140252  0.59378595  0.11435303    -0.80400
C589        C  0.08115580  0.58837776  0.10572907     0.79500
N590        N  0.05758980  0.58808160  0.11255590    -0.78800
C591        C  0.03981324  0.58635190  0.09605729     0.82000
N592        N  0.04544688  0.58498357  0.07240282    -0.78700
C593        C  0.06877137  0.58518461  0.06497017     0.82100
N594        N  0.08671095  0.58689960  0.08168321    -0.80400
C595        C  0.08000001  0.43447112  0.92457391     0.79500
N596        N  0.09490351  0.41528163  0.92162509    -0.78800
C597        C  0.08600645  0.39246206  0.92281000     0.82000
N598        N  0.06206512  0.38919119  0.92747827    -0.78700
C599        C  0.04704492  0.40842730  0.93053190     0.82100
N600        N  0.05627540  0.43093416  0.92919388    -0.80400
C601        C  0.99883471  0.60357484  0.09485106    -0.09900
C602        C  0.01446140  0.58574561  0.10343878     0.06300
C603        C  0.00514684  0.56624091  0.11648078    -0.03600
C604        C  0.98029445  0.56435757  0.11995115    -0.08100
C605        C  0.96433672  0.58156917  0.11042135     0.05500
C606        C  0.97388394  0.60175749  0.09830359    -0.03100
Br607      Br  0.95414779  0.62612729  0.08386694    -0.02800
H608        H  0.00604018  0.61852380  0.08461927     0.09400
H609        H  0.97335541  0.54878724  0.12940627     0.07400
Br610      Br  0.02519858  0.54035243  0.12754113    -0.03200
C611        C  0.08731387  0.50008692  0.90969323    -0.09900
C612        C  0.09688246  0.50880128  0.93146404     0.06300
C613        C  0.10471256  0.49211168  0.94898501    -0.03600
C614        C  0.10088180  0.46749935  0.94540196    -0.08100
C615        C  0.08933373  0.45913153  0.92465141     0.05500
C616        C  0.08332273  0.47542314  0.90629531    -0.03100
Br617      Br  0.06866848  0.46482287  0.87683683    -0.02800
H618        H  0.08147798  0.51254384  0.89592271     0.09400
H619        H  0.10569272  0.45496183  0.95950773     0.07400
Br620      Br  0.12036943  0.50157696  0.97838278    -0.03200
C621        C  0.09545239  0.59000055  0.00153554    -0.09900
C622        C  0.08091321  0.57342272  0.98910421     0.06300
C623        C  0.06193645  0.56190576  0.00146762    -0.03600
C624        C  0.05855252  0.56613099  0.02603876    -0.08100
C625        C  0.07375835  0.58177738  0.03891731     0.05500
C626        C  0.09205093  0.59423133  0.02632227    -0.03100
Br627      Br  0.11212878  0.61782069  0.04165616    -0.02800
H628        H  0.10996736  0.59910829  0.99212081     0.09400
H629        H  0.04402446  0.55678943  0.03521589     0.07400
Br630      Br  0.03958615  0.54067999  0.98561842    -0.03200
C631        C  0.87440745  0.48635286  0.11505237    -0.09900
C632        C  0.89210725  0.47116615  0.10507541     0.06300
C633        C  0.91460992  0.48062935  0.09847125    -0.03600
C634        C  0.91892961  0.50513406  0.10107837    -0.08100
C635        C  0.90115402  0.52090807  0.11037927     0.05500
C636        C  0.87866266  0.51113832  0.11775958    -0.03100
Br637      Br  0.85315175  0.52994535  0.13209223    -0.02800
H638        H  0.85706189  0.47897515  0.12029761     0.09400
H639        H  0.93643755  0.51178351  0.09546875     0.07400
Br640      Br  0.94037255  0.46067432  0.08628304    -0.03200
C641        C  0.88344693  0.41239188  0.00369093    -0.09900
C642        C  0.90104895  0.39469141  0.99920773     0.06300
C643        C  0.90986956  0.38096460  0.01854010    -0.03600
C644        C  0.90288985  0.38659674  0.04213374    -0.08100
C645        C  0.88701154  0.40574490  0.04681300     0.05500
C646        C  0.87632121  0.41794009  0.02734475    -0.03100
Br647      Br  0.85168531  0.44189456  0.03217985    -0.02800
H648        H  0.87599238  0.42260525  0.98888718     0.09400
H649        H  0.91076302  0.37668053  0.05691775     0.07400
Br650      Br  0.93106752  0.35405402  0.01369269    -0.03200
C651        C  0.01350614  0.38419791  0.94808156    -0.09900
C652        C  0.02095461  0.40494816  0.93565011     0.06300
C653        C  0.00320209  0.42193459  0.92863613    -0.03600
C654        C  0.97885477  0.41744159  0.93333328    -0.08100
C655        C  0.97159118  0.39681640  0.94568885     0.05500
C656        C  0.98909659  0.38022760  0.95343512    -0.03100
Br657      Br  0.98061889  0.35154321  0.97051218    -0.02800
H658        H  0.02673895  0.37109844  0.95392062     0.09400
H659        H  0.96540505  0.43030455  0.92742622     0.07400
Br660      Br  0.01009678  0.45143184  0.91201182    -0.03200
C661        C  0.28859175  0.39887716  0.72737508    -0.09900
C662        C  0.30058851  0.38153656  0.74147093     0.06300
C663        C  0.30561305  0.38743515  0.76580255    -0.03600
C664        C  0.29680817  0.40908605  0.77577319    -0.08100
C665        C  0.28301600  0.42535285  0.76212153     0.05500
C666        C  0.27973758  0.42042091  0.73747066    -0.03100
Br667      Br  0.26020286  0.44079014  0.71769481    -0.02800
H668        H  0.28489689  0.39516070  0.70854975     0.09400
H669        H  0.29902197  0.41231115  0.79494970     0.07400
Br670      Br  0.32240628  0.36616225  0.78719543    -0.03200
C671        C  0.42144451  0.26389402  0.72423578    -0.09900
C672        C  0.43326793  0.27548757  0.74334647     0.06300
C673        C  0.42283121  0.29651941  0.75318089    -0.03600
C674        C  0.40022676  0.30457330  0.74513074    -0.08100
C675        C  0.38733323  0.29173288  0.72744091     0.05500
C676        C  0.39863275  0.27150820  0.71644452    -0.03100
Br677      Br  0.38289784  0.25119061  0.69319061    -0.02800
H678        H  0.42874525  0.24712560  0.71716473     0.09400
H679        H  0.39223974  0.32037126  0.75356259     0.07400
Br680      Br  0.43755633  0.31302204  0.77975326    -0.03200
C681        C  0.18743118  0.39145687  0.80901814    -0.09900
C682        C  0.19869774  0.37817074  0.82740061     0.06300
C683        C  0.21660517  0.38994567  0.84137821    -0.03600
C684        C  0.22474425  0.41293854  0.83487106    -0.08100
C685        C  0.21514723  0.42509696  0.81499478     0.05500
C686        C  0.19533169  0.41475247  0.80301491    -0.03100
Br687      Br  0.18016963  0.43107183  0.77675096    -0.02800
H688        H  0.17297626  0.38342962  0.79866201     0.09400
H689        H  0.24017079  0.42050610  0.84414735     0.07400
Br690      Br  0.23188642  0.37572559  0.86891421    -0.03200
C691        C  0.07848348  0.28930316  0.78127592    -0.09900
C692        C  0.06352426  0.27422226  0.79511631     0.06300
C693        C  0.07082623  0.26844240  0.81861880    -0.03600
C694        C  0.09337456  0.27607427  0.82715731    -0.08100
C695        C  0.10937398  0.28946281  0.81257304     0.05500
C696        C  0.10117441  0.29688154  0.78964657    -0.03100
Br697      Br  0.12058251  0.31541000  0.76779565    -0.02800
H698        H  0.07353560  0.29323672  0.76282175     0.09400
H699        H  0.09880348  0.27051611  0.84502195     0.07400
Br700      Br  0.05197386  0.24725438  0.83838632    -0.03200
C701        C  0.11182232  0.33335401  0.89865415    -0.09900
C702        C  0.13670068  0.33788401  0.90052612     0.06300
C703        C  0.14435321  0.35819169  0.91377956    -0.03600
C704        C  0.12730124  0.37482467  0.92233995    -0.08100
C705        C  0.10247025  0.37175361  0.91800697     0.05500
C706        C  0.09470725  0.35002652  0.90705076    -0.03100
Br707      Br  0.06153740  0.34285771  0.89996071    -0.02800
H708        H  0.10555041  0.31779244  0.88862946     0.09400
H709        H  0.13365477  0.39084685  0.93153166     0.07400
Br710      Br  0.17777790  0.36479790  0.91999725    -0.03200
C711        C  0.09499806  0.19828344  0.71363019    -0.09900
C712        C  0.11159510  0.18759634  0.72957441     0.06300
C713        C  0.10407415  0.18343457  0.75360085    -0.03600
C714        C  0.08134446  0.19158654  0.76146502    -0.08100
C715        C  0.06570029  0.20409575  0.74601788     0.05500
C716        C  0.07235152  0.20654163  0.72167102    -0.03100
Br717      Br  0.05230676  0.22373603  0.69953572    -0.02800
H718        H  0.10001667  0.20121654  0.69498218     0.09400
H719        H  0.07682045  0.19023859  0.78044995     0.07400
Br720      Br  0.12462200  0.16925472  0.77745829    -0.03200
C721        C  0.26417420  0.24593965  0.72286859    -0.09900
C722        C  0.26482815  0.26314193  0.70433279     0.06300
C723        C  0.24848733  0.26033513  0.68491212    -0.03600
C724        C  0.23210847  0.24096684  0.68459279    -0.08100
C725        C  0.23140556  0.22390974  0.70324573     0.05500
C726        C  0.24800272  0.22645357  0.72237219    -0.03100
Br727      Br  0.25094898  0.20295113  0.74744866    -0.02800
H728        H  0.27679463  0.24726687  0.73766814     0.09400
H729        H  0.21958231  0.23942051  0.66972279     0.07400
Br730      Br  0.24686426  0.28246975  0.65846747    -0.03200
C731        C  0.20096503  0.06687599  0.75174415    -0.09900
C732        C  0.22266889  0.05774795  0.74221583     0.06300
C733        C  0.23405998  0.07039119  0.72337281    -0.03600
C734        C  0.22436281  0.09213277  0.71509168    -0.08100
C735        C  0.20354398  0.10225750  0.72573220     0.05500
C736        C  0.19134283  0.08887110  0.74375883    -0.03100
Br737      Br  0.16204170  0.09974496  0.75901582    -0.02800
H738        H  0.19245779  0.05783241  0.76681464     0.09400
H739        H  0.23397092  0.10178579  0.70109912     0.07400
Br740      Br  0.26460006  0.06002193  0.71040806    -0.03200
C741        C  0.42036892  0.19465953  0.78933915    -0.09900
C742        C  0.43241175  0.21305068  0.80183654     0.06300
C743        C  0.42303227  0.22072459  0.82422284    -0.03600
C744        C  0.40141221  0.21085790  0.83318228    -0.08100
C745        C  0.38849023  0.19331621  0.82002840     0.05500
C746        C  0.39880607  0.18467758  0.79815980    -0.03100
Br747      Br  0.38402095  0.16043475  0.77832284    -0.02800
H748        H  0.42689635  0.18918642  0.77165497     0.09400
H749        H  0.39427782  0.21760490  0.85016810     0.07400
Br750      Br  0.43821960  0.24623530  0.84198737    -0.03200
C751        C  0.30139467  0.07006291  0.78694505    -0.09900
C752        C  0.28549863  0.05569398  0.80046137     0.06300
C753        C  0.28023699  0.06266721  0.82435109    -0.03600
C754        C  0.28908334  0.08463016  0.83351178    -0.08100
C755        C  0.30324557  0.10016969  0.81916240     0.05500
C756        C  0.31020724  0.09201970  0.79589970    -0.03100
Br757      Br  0.32955839  0.11073658  0.77413762    -0.02800
H758        H  0.30516314  0.06526558  0.76831337     0.09400
H759        H  0.28394979  0.09002003  0.85164739     0.07400
Br760      Br  0.25893633  0.04394381  0.84411522    -0.03200
C761        C  0.26546341  0.23446463  0.82609723    -0.09900
C762        C  0.26723425  0.21912717  0.84615859     0.06300
C763        C  0.24986357  0.22178495  0.86479842    -0.03600
C764        C  0.23170813  0.23949262  0.86325779    -0.08100
C765        C  0.23001985  0.25502283  0.84332978     0.05500
C766        C  0.24736887  0.25230370  0.82460712    -0.03100
Br767      Br  0.24848106  0.27319465  0.79714949    -0.02800
H768        H  0.27860551  0.23293549  0.81161749     0.09400
H769        H  0.21861050  0.24094958  0.87778093     0.07400
Br770      Br  0.24896820  0.20094131  0.89229670    -0.03200
C771        C  0.60031949  0.18433818  0.79696479    -0.09900
C772        C  0.61189786  0.19674305  0.81588763     0.06300
C773        C  0.59877321  0.21508044  0.82809158    -0.03600
C774        C  0.57583450  0.22198621  0.81983711    -0.08100
C775        C  0.56527826  0.21087190  0.79969797     0.05500
C776        C  0.57732278  0.19114830  0.78899911    -0.03100
Br777      Br  0.56390347  0.17451133  0.76178491    -0.02800
H778        H  0.60946280  0.16965153  0.78772650     0.09400
H779        H  0.56711561  0.23758103  0.82791778     0.07400
Br780      Br  0.61120048  0.23234678  0.85539104    -0.03200
C781        C  0.71598695  0.18003866  0.91959785    -0.09900
C782        C  0.69978108  0.19456802  0.90656871     0.06300
C783        C  0.69014411  0.21524704  0.91820673    -0.03600
C784        C  0.69861152  0.22212343  0.94106798    -0.08100
C785        C  0.71636717  0.20868685  0.95303371     0.05500
C786        C  0.72424886  0.18693977  0.94249514    -0.03100
Br787      Br  0.74875308  0.16776292  0.95745358    -0.02800
H788        H  0.72321851  0.16372517  0.91152459     0.09400
H789        H  0.69277627  0.23921224  0.94865694     0.07400
Br790      Br  0.66630680  0.23568073  0.90377500    -0.03200
C791        C  0.71410838  0.30669834  0.61716368    -0.09900
C792        C  0.69560788  0.29433084  0.62944950     0.06300
C793        C  0.68318802  0.27593021  0.61680765    -0.03600
C794        C  0.69163488  0.26805333  0.59415809    -0.08100
C795        C  0.71185374  0.27865624  0.58322213     0.05500
C796        C  0.72206970  0.29911770  0.59424046    -0.03100
Br797      Br  0.74827857  0.31598924  0.57923032    -0.02800
H798        H  0.72320508  0.32165303  0.62580925     0.09400
H799        H  0.68352431  0.25229831  0.58593577     0.07400
Br800      Br  0.65475219  0.26055208  0.62923463    -0.03200
C801        C  0.59650035  0.30007273  0.73725879    -0.09900
C802        C  0.60998054  0.28645343  0.72035511     0.06300
C803        C  0.59935190  0.26536690  0.71068447    -0.03600
C804        C  0.57702170  0.25734889  0.71962648    -0.08100
C805        C  0.56472209  0.26990434  0.73802039     0.05500
C806        C  0.57423017  0.29194474  0.74613326    -0.03100
Br807      Br  0.55885089  0.31008395  0.77146318    -0.02800
H808        H  0.60376128  0.31667284  0.74450838     0.09400
H809        H  0.57024961  0.24002444  0.71369283     0.07400
Br810      Br  0.61481565  0.24541637  0.68679882    -0.03200
C811        C  0.92373729  0.21990883  0.71548894    -0.09900
C812        C  0.93333578  0.20861465  0.73589279     0.06300
C813        C  0.92105400  0.18862713  0.74547341    -0.03600
C814        C  0.89858452  0.18167124  0.73620056    -0.08100
C815        C  0.88777785  0.19441012  0.71721691     0.05500
C816        C  0.90134437  0.21286387  0.70594802    -0.03100
Br817      Br  0.89040455  0.22949869  0.67775771    -0.02800
H818        H  0.93271770  0.23556155  0.70813804     0.09400
H819        H  0.88904650  0.16695073  0.74467471     0.07400
Br820      Br  0.93314784  0.17227948  0.77332046    -0.03200
C821        C  0.79914830  0.22124425  0.61890222    -0.09900
C822        C  0.79170797  0.19826429  0.62639094     0.06300
C823        C  0.77707535  0.18456660  0.61044432    -0.03600
C824        C  0.76799431  0.19513513  0.58927033    -0.08100
C825        C  0.77394088  0.21887841  0.58305485     0.05500
C826        C  0.79064726  0.23138000  0.59751659    -0.03100
Br827      Br  0.80107139  0.26331654  0.58952501    -0.02800
H828        H  0.81121391  0.23180056  0.63004840     0.09400
H829        H  0.75500952  0.18531537  0.57848951     0.07400
Br830      Br  0.76808673  0.15175868  0.61652652    -0.03200
C831        C  0.75440734  0.19178272  0.75037494    -0.09900
C832        C  0.77046022  0.17221150  0.74784554     0.06300
C833        C  0.76896069  0.15358799  0.76516051    -0.03600
C834        C  0.75097639  0.15416593  0.78326609    -0.08100
C835        C  0.73446664  0.17339593  0.78534926     0.05500
C836        C  0.73680434  0.19265309  0.76882195    -0.03100
Br837      Br  0.71608102  0.22042283  0.76964623    -0.02800
H838        H  0.75531512  0.20651722  0.73767408     0.09400
H839        H  0.75012147  0.13951037  0.79606188     0.07400
Br840      Br  0.79178207  0.12755968  0.76624560    -0.03200
C841        C  0.80622976  0.26008478  0.91662332    -0.09900
C842        C  0.80004411  0.28389698  0.91084459     0.06300
C843        C  0.78711385  0.29768647  0.92826269    -0.03600
C844        C  0.77858429  0.28679648  0.94954323    -0.08100
C845        C  0.78305218  0.26238096  0.95417246     0.05500
C846        C  0.79779577  0.24934706  0.93786707    -0.03100
Br847      Br  0.80445775  0.21576074  0.94255773    -0.02800
H848        H  0.81654159  0.24923762  0.90391765     0.09400
H849        H  0.76694235  0.29698856  0.96163815     0.07400
Br850      Br  0.78020536  0.33130284  0.92413376    -0.03200
C851        C  0.90105953  0.29582201  0.80508653    -0.09900
C852        C  0.88596103  0.28157006  0.81978825     0.06300
C853        C  0.89447508  0.25858091  0.82674155    -0.03600
C854        C  0.91661944  0.24993022  0.81772815    -0.08100
C855        C  0.93083960  0.26362977  0.80185186     0.05500
C856        C  0.92311562  0.28699582  0.79605134    -0.03100
Br857      Br  0.94079047  0.30630434  0.77348076    -0.02800
H858        H  0.89527129  0.31361842  0.79968755     0.09400
H859        H  0.92191031  0.23158142  0.82168608     0.07400
Br860      Br  0.87652034  0.23729362  0.84729595    -0.03200
C861        C  0.76525468  0.29400240  0.77352958    -0.09900
C862        C  0.76658285  0.31310352  0.79028358     0.06300
C863        C  0.74958991  0.33204707  0.78827007    -0.03600
C864        C  0.73214544  0.33164715  0.76987658    -0.08100
C865        C  0.73090891  0.31264022  0.75298395     0.05500
C866        C  0.74790329  0.29368002  0.75502498    -0.03100
Br867      Br  0.74956041  0.26753897  0.73227373    -0.02800
H868        H  0.77817254  0.27937057  0.77449288     0.09400
H869        H  0.71924329  0.34629990  0.76895398     0.07400
Br870      Br  0.74832785  0.35845863  0.81076652    -0.03200
C871        C  0.88329210  0.36265708  0.87374014    -0.09900
C872        C  0.85838956  0.36650099  0.87647944     0.06300
C873        C  0.85009444  0.38110696  0.89564563    -0.03600
C874        C  0.86643278  0.38953076  0.91293781    -0.08100
C875        C  0.89111872  0.38350025  0.91161929     0.05500
C876        C  0.89963728  0.37065004  0.89109411    -0.03100
Br877      Br  0.93250900  0.36012382  0.88660346    -0.02800
H878        H  0.88997745  0.35135285  0.85913869     0.09400
H879        H  0.85958890  0.40001859  0.92804751     0.07400
Br880      Br  0.81669405  0.38965717  0.89929622    -0.03200
C881        C  0.25258302  0.57079060  0.73168010    -0.09900
C882        C  0.26712091  0.55769792  0.74771789     0.06300
C883        C  0.28997920  0.56703664  0.75350858    -0.03600
C884        C  0.29742875  0.58933098  0.74423905    -0.08100
C885        C  0.28235146  0.60315838  0.72923971     0.05500
C886        C  0.25985604  0.59318507  0.72244835    -0.03100
Br887      Br  0.23732895  0.60947570  0.70195073    -0.02800
H888        H  0.23450815  0.56442782  0.72782261     0.09400
H889        H  0.31491228  0.59622197  0.74953759     0.07400
Br890      Br  0.31057284  0.55123506  0.77616733    -0.03200
C891        C  0.28978557  0.71874856  0.60055509    -0.09900
C892        C  0.27255459  0.70558314  0.58753092     0.06300
C893        C  0.26375299  0.68407435  0.59771166    -0.03600
C894        C  0.27116868  0.67687146  0.62088251    -0.08100
C895        C  0.28719230  0.69102452  0.63462843     0.05500
C896        C  0.29691377  0.71198511  0.62378512    -0.03100
Br897      Br  0.31809328  0.73396264  0.64020834    -0.02800
H898        H  0.29593894  0.73586819  0.59357616     0.09400
H899        H  0.26379093  0.66051024  0.62842628     0.07400
Br900      Br  0.23989425  0.66519434  0.58138091    -0.03200
C901        C  0.21832315  0.79513509  0.61903410    -0.09900
C902        C  0.19961264  0.78331962  0.63152076     0.06300
C903        C  0.18726943  0.76446936  0.61948834    -0.03600
C904        C  0.19445193  0.75728877  0.59620761    -0.08100
C905        C  0.21436686  0.76782238  0.58462264     0.05500
C906        C  0.22579376  0.78745757  0.59600366    -0.03100
Br907      Br  0.25380333  0.80225850  0.58201112    -0.02800
H908        H  0.22780923  0.80992755  0.62752078     0.09400
H909        H  0.18623608  0.74142698  0.58830576     0.07400
Br910      Br  0.16259430  0.74546871  0.63461694    -0.03200
C911        C  0.19779954  0.91902572  0.74360900    -0.09900
C912        C  0.22196774  0.92508732  0.73903012     0.06300
C913        C  0.23563442  0.90994278  0.72365400    -0.03600
C914        C  0.22586870  0.88835991  0.71479797    -0.08100
C915        C  0.20230553  0.88114943  0.72096028     0.05500
C916        C  0.18778818  0.89751299  0.73453621    -0.03100
Br917      Br  0.15455029  0.89142717  0.74251166    -0.02800
H918        H  0.18716738  0.93014688  0.75581293     0.09400
H919        H  0.23724446  0.87665970  0.70389186     0.07400
Br920      Br  0.26884017  0.91688867  0.71645695    -0.03200
C921        C  0.20860829  0.68472480  0.92184165    -0.09900
C922        C  0.19082800  0.69763019  0.90924858     0.06300
C923        C  0.17952565  0.71737363  0.92104892    -0.03600
C924        C  0.18693026  0.72441004  0.94417184    -0.08100
C925        C  0.20598589  0.71272843  0.95587482     0.05500
C926        C  0.21627330  0.69219356  0.94480577    -0.03100
Br927      Br  0.24277728  0.67549207  0.95931692    -0.02800
H928        H  0.21723455  0.66923029  0.91346545     0.09400
H929        H  0.17960178  0.74088060  0.95189613     0.07400
Br930      Br  0.15625603  0.73778987  0.90568177    -0.03200
C931        C  0.18193603  0.58819397  0.81234873    -0.09900
C932        C  0.19623363  0.60342053  0.82683829     0.06300
C933        C  0.21790580  0.59401105  0.83638946    -0.03600
C934        C  0.22542961  0.57065913  0.83008994    -0.08100
C935        C  0.21239176  0.55657616  0.81358232     0.05500
C936        C  0.19001500  0.56521717  0.80542336    -0.03100
Br937      Br  0.17194575  0.54786033  0.78156288    -0.02800
H938        H  0.16502788  0.59468628  0.80508994     0.09400
H939        H  0.24314969  0.56466713  0.83572918     0.07400
Br940      Br  0.23985882  0.61276490  0.85546687    -0.03200
C941        C  0.19342424  0.73008777  0.77603132    -0.09900
C942        C  0.17126924  0.72497791  0.78759523     0.06300
C943        C  0.15065055  0.73812069  0.78010282    -0.03600
C944        C  0.15261860  0.75579662  0.76205995    -0.08100
C945        C  0.17476444  0.76100704  0.75066715     0.05500
C946        C  0.19527023  0.74755552  0.75771779    -0.03100
Br947      Br  0.22598504  0.75082839  0.74184065    -0.02800
H948        H  0.20947855  0.72015269  0.78097387     0.09400
H949        H  0.13655604  0.76560553  0.75691959     0.07400
Br950      Br  0.11897316  0.73309175  0.79342340    -0.03200
C951        C  0.11806641  0.60683164  0.86592756    -0.09900
C952        C  0.11515644  0.63111022  0.87245477     0.06300
C953        C  0.10309032  0.63671753  0.89416701    -0.03600
C954        C  0.09636871  0.61826525  0.90993264    -0.08100
C955        C  0.10139365  0.59387386  0.90460984     0.05500
C956        C  0.11144455  0.58825749  0.88159583    -0.03100
Br957      Br  0.11859192  0.55620777  0.87021955    -0.02800
H958        H  0.12735025  0.60219621  0.84926399     0.09400
H959        H  0.08780582  0.62325693  0.92684802     0.07400
Br960      Br  0.09568225  0.66930584  0.90335014    -0.03200
C961        C  0.30537632  0.89246290  0.80765865    -0.09900
C962        C  0.29145454  0.87975793  0.82470202     0.06300
C963        C  0.27022710  0.89088161  0.83385354    -0.03600
C964        C  0.26248219  0.91299151  0.82444256    -0.08100
C965        C  0.27542948  0.92457101  0.80604886     0.05500
C966        C  0.29745794  0.91447653  0.79824603    -0.03100
Br967      Br  0.31579018  0.92871694  0.77257341    -0.02800
H968        H  0.32193878  0.88467435  0.80059214     0.09400
H969        H  0.24514802  0.92021580  0.83014559     0.07400
Br970      Br  0.25009654  0.87665283  0.85820357    -0.03200
C971        C  0.26894695  0.80218679  0.92374743    -0.09900
C972        C  0.28591227  0.78793428  0.91105984     0.06300
C973        C  0.29405392  0.76634819  0.92189307    -0.03600
C974        C  0.28482029  0.75931483  0.94427007    -0.08100
C975        C  0.26681098  0.77267573  0.95609918     0.05500
C976        C  0.25920001  0.79455280  0.94589141    -0.03100
Br977      Br  0.23383523  0.81323718  0.96050708    -0.02800
H978        H  0.26254717  0.81889440  0.91603933     0.09400
H979        H  0.28995375  0.74187649  0.95133423     0.07400
Br980      Br  0.31564394  0.74380032  0.90647850    -0.03200
C981        C  0.33526794  0.74861843  0.78331141    -0.09900
C982        C  0.31354364  0.75838852  0.79237265     0.06300
C983        C  0.29160304  0.74883753  0.78344095    -0.03600
C984        C  0.29184374  0.73062174  0.76566143    -0.08100
C985        C  0.31356602  0.72090443  0.75652659     0.05500
C986        C  0.33551613  0.73015469  0.76579832    -0.03100
Br987      Br  0.36669908  0.71907322  0.75514306    -0.02800
H988        H  0.35237136  0.75540363  0.78989391     0.09400
H989        H  0.27474803  0.72373602  0.75916972     0.07400
Br990      Br  0.26051862  0.75905394  0.79521243    -0.03200
C991        C  0.38940883  0.68288371  0.30687385    -0.09900
C992        C  0.37164763  0.69589302  0.31985038     0.06300
C993        C  0.37653663  0.72017872  0.32598432    -0.03600
C994        C  0.39780416  0.73111594  0.31768817    -0.08100
C995        C  0.41457442  0.71856258  0.30319728     0.05500
C996        C  0.41049933  0.69403144  0.29836449    -0.03100
Br997      Br  0.43152929  0.67587291  0.27753166    -0.02800
H998        H  0.38639319  0.66416312  0.30221814     0.09400
H999        H  0.40039724  0.75018850  0.32103309     0.07400
Br1000     Br  0.35459130  0.74023837  0.34409600    -0.03200
C1001       C  0.30111439  0.70180836  0.41948151    -0.09900
C1002       C  0.29090771  0.68044618  0.41047640     0.06300
C1003       C  0.27478238  0.66753193  0.42554479    -0.03600
C1004       C  0.26717936  0.67757375  0.44768193    -0.08100
C1005       C  0.27551508  0.70023155  0.45528235     0.05500
C1006       C  0.29342443  0.71176130  0.44144240    -0.03100
Br1007     Br  0.30473937  0.74336857  0.44983304    -0.02800
H1008       H  0.31385897  0.71184527  0.40861136     0.09400
H1009       H  0.25302831  0.66871008  0.45785326     0.07400
Br1010     Br  0.26159252  0.63676993  0.41670287    -0.03200
C1011       C  0.22198047  0.78134516  0.44149305    -0.09900
C1012       C  0.21361585  0.75948758  0.45107531     0.06300
C1013       C  0.19546076  0.74701341  0.43839923    -0.03600
C1014       C  0.18593780  0.75628428  0.41695393    -0.08100
C1015       C  0.19444552  0.77794752  0.40704742     0.05500
C1016       C  0.21268670  0.79062063  0.41978481    -0.03100
Br1017     Br  0.22738264  0.81949915  0.40768544    -0.02800
H1018       H  0.23700575  0.79041913  0.45004032     0.09400
H1019       H  0.17207903  0.74611759  0.40771875     0.07400
Br1020     Br  0.18473101  0.71582891  0.44860316    -0.03200
C1021       C  0.05491234  0.78653139  0.29461674    -0.09900
C1022       C  0.04672817  0.76365000  0.30151699     0.06300
C1023       C  0.05981138  0.75124299  0.31931056    -0.03600
C1024       C  0.08151290  0.76066796  0.32832475    -0.08100
C1025       C  0.09088177  0.78270974  0.32006355     0.05500
C1026       C  0.07651355  0.79625803  0.30384453    -0.03100
Br1027     Br  0.08573622  0.82739660  0.29210259    -0.02800
H1028       H  0.04545924  0.79611620  0.28054204     0.09400
H1029       H  0.09156060  0.75014925  0.34125933     0.07400
Br1030     Br  0.04973729  0.72007457  0.33016921    -0.03200
C1031       C  0.08140621  0.67818046  0.23463234    -0.09900
C1032       C  0.09459515  0.69196018  0.21785128     0.06300
C1033       C  0.08333533  0.71269794  0.20817300    -0.03600
C1034       C  0.06092063  0.72052295  0.21732377    -0.08100
C1035       C  0.04891449  0.70787110  0.23564986     0.05500
C1036       C  0.05888333  0.68597288  0.24349071    -0.03100
Br1037     Br  0.04337395  0.66744813  0.26818401    -0.02800
H1038       H  0.08910394  0.66180318  0.24182709     0.09400
H1039       H  0.05368700  0.73761482  0.21135629     0.07400
Br1040     Br  0.09756143  0.73182381  0.18310488    -0.03200
C1041       C  0.25067236  0.68360136  0.27447901    -0.09900
C1042       C  0.25458818  0.66190582  0.28690570     0.06300
C1043       C  0.23977290  0.64200423  0.28097647    -0.03600
C1044       C  0.22167512  0.64416219  0.26331575    -0.08100
C1045       C  0.21777945  0.66584029  0.25079452     0.05500
C1046       C  0.23290759  0.68562915  0.25646652    -0.03100
Br1047     Br  0.23164583  0.71546910  0.23919274    -0.02800
H1048       H  0.26197580  0.69905763  0.27837295     0.09400
H1049       H  0.21045247  0.62865750  0.25942438     0.07400
Br1050     Br  0.24254142  0.61157724  0.29701490    -0.03200
C1051       C  0.11193826  0.60377746  0.16515187    -0.09900
C1052       C  0.13426232  0.61239122  0.15696713     0.06300
C1053       C  0.14081626  0.60817287  0.13260189    -0.03600
C1054       C  0.12384280  0.59847757  0.11656017    -0.08100
C1055       C  0.10023524  0.59281618  0.12420093     0.05500
C1056       C  0.09500639  0.59409637  0.14931110    -0.03100
Br1057     Br  0.06506366  0.58442494  0.16414653    -0.02800
H1058       H  0.10683149  0.60604263  0.18394059     0.09400
H1059       H  0.12880664  0.59677435  0.09769066     0.07400
Br1060     Br  0.17182939  0.61653739  0.11944779    -0.03200
C1061       C  0.18377079  0.73316609  0.10258707    -0.09900
C1062       C  0.19881008  0.71949823  0.08724882     0.06300
C1063       C  0.20391871  0.69554621  0.09337293    -0.03600
C1064       C  0.19594657  0.68638809  0.11550556    -0.08100
C1065       C  0.18280587  0.70077321  0.13202599     0.05500
C1066       C  0.17571531  0.72412025  0.12477017    -0.03100
Br1067     Br  0.15707866  0.74561899  0.14477898    -0.02800
H1068       H  0.18017336  0.75185942  0.09831764     0.09400
H1069       H  0.20105859  0.66818736  0.12022364     0.07400
Br1070     Br  0.22449974  0.67580296  0.07354733    -0.03200
C1071       C  0.40624850  0.79783357  0.24975911    -0.09900
C1072       C  0.41581828  0.77646870  0.24010400     0.06300
C1073       C  0.40358927  0.76519453  0.22092318    -0.03600
C1074       C  0.38137823  0.77429785  0.21291224    -0.08100
C1075       C  0.37076217  0.79470508  0.22383148     0.05500
C1076       C  0.38402392  0.80701443  0.24192935    -0.03100
Br1077     Br  0.37203938  0.83486160  0.25893113    -0.02800
H1078       H  0.41496663  0.80618151  0.26513633     0.09400
H1079       H  0.37193201  0.76475330  0.19872496     0.07400
Br1080     Br  0.41542107  0.73566830  0.20708177    -0.03200
C1081       C  0.28478191  0.76442308  0.09877491    -0.09900
C1082       C  0.26408346  0.77481565  0.08859012     0.06300
C1083       C  0.25306636  0.79429729  0.10072712    -0.03600
C1084       C  0.26148793  0.80184340  0.12329103    -0.08100
C1085       C  0.28112729  0.79037870  0.13447868     0.05500
C1086       C  0.29355608  0.77217573  0.12132511    -0.03100
Br1087     Br  0.32198188  0.75647945  0.13321006    -0.02800
H1088       H  0.29309767  0.74895896  0.09002850     0.09400
H1089       H  0.25191843  0.81627508  0.13250796     0.07400
Br1090     Br  0.22442997  0.80920874  0.08834463    -0.03200
C1091       C  0.21965240  0.83247957  0.28454760    -0.09900
C1092       C  0.21218176  0.80967902  0.29270088     0.06300
C1093       C  0.22394193  0.78916862  0.28278007    -0.03600
C1094       C  0.24208439  0.79179821  0.26508801    -0.08100
C1095       C  0.24929363  0.81457440  0.25662776     0.05500
C1096       C  0.23781670  0.83512010  0.26686065    -0.03100
Br1097     Br  0.24574718  0.86750354  0.25778587    -0.02800
H1098       H  0.21119631  0.84854444  0.29190688     0.09400
H1099       H  0.25060271  0.77572185  0.25783936     0.07400
Br1100     Br  0.21675246  0.75686962  0.29272144    -0.03200
C1101       C  0.57604079  0.70488372  0.32720206    -0.09900
C1102       C  0.59004668  0.68928438  0.31262209     0.06300
C1103       C  0.58044427  0.68182095  0.29015853    -0.03600
C1104       C  0.55859242  0.69160100  0.28204664    -0.08100
C1105       C  0.54578724  0.70871802  0.29579196     0.05500
C1106       C  0.55422059  0.71460599  0.31893643    -0.03100
Br1107     Br  0.53801973  0.73826257  0.33852745    -0.02800
H1108       H  0.58258431  0.71047838  0.34473276     0.09400
H1109       H  0.55265732  0.68743135  0.26390255     0.07400
Br1110     Br  0.59686980  0.66014386  0.26844623    -0.03200
C1111       C  0.69831793  0.56065013  0.30995345    -0.09900
C1112       C  0.69350247  0.55676088  0.28546584     0.06300
C1113       C  0.67861112  0.57335907  0.27337040    -0.03600
C1114       C  0.67078627  0.59443987  0.28501831    -0.08100
C1115       C  0.67739373  0.59956286  0.30894053     0.05500
C1116       C  0.69033318  0.58167898  0.32181428    -0.03100
Br1117     Br  0.69896082  0.58488795  0.35517548    -0.02800
H1118       H  0.70999677  0.54824357  0.31941604     0.09400
H1119       H  0.66019345  0.60729416  0.27492521     0.07400
Br1120     Br  0.66980283  0.56867497  0.24023481    -0.03200
C1121       C  0.78585269  0.59171033  0.23561339    -0.09900
C1122       C  0.77774497  0.60121364  0.21364067     0.06300
C1123       C  0.76228884  0.58681723  0.19916536    -0.03600
C1124       C  0.75328613  0.56499136  0.20812378    -0.08100
C1125       C  0.75998516  0.55660935  0.23091053     0.05500
C1126       C  0.77723640  0.56963211  0.24415148    -0.03100
Br1127     Br  0.78730563  0.55916750  0.27544729    -0.02800
H1128       H  0.79823856  0.60189178  0.24673422     0.09400
H1129       H  0.73967192  0.55536465  0.19796579     0.07400
Br1130     Br  0.75162387  0.59590719  0.16755335    -0.03200
C1131       C  0.87902102  0.67861597  0.24131299    -0.09900
C1132       C  0.87042077  0.68733411  0.21919784     0.06300
C1133       C  0.88599920  0.70203597  0.20524033    -0.03600
C1134       C  0.90840650  0.70940186  0.21443376    -0.08100
C1135       C  0.91592828  0.70259407  0.23750668     0.05500
C1136       C  0.90134203  0.68632233  0.25056392    -0.03100
Br1137     Br  0.90995492  0.67655899  0.28252205    -0.02800
H1138       H  0.86774589  0.66695481  0.25214751     0.09400
H1139       H  0.91898576  0.72235506  0.20439663     0.07400
Br1140     Br  0.87770863  0.71351390  0.17373842    -0.03200
C1141       C  0.86679633  0.64460419  0.14050308    -0.09900
C1142       C  0.84245403  0.63922595  0.13633561     0.06300
C1143       C  0.83663176  0.61847265  0.12284832    -0.03600
C1144       C  0.85504196  0.60278967  0.11525084    -0.08100
C1145       C  0.87932104  0.60707206  0.12137633     0.05500
C1146       C  0.88510827  0.62862721  0.13382496    -0.03100
Br1147     Br  0.91666444  0.63621518  0.14604799    -0.02800
H1148       H  0.87155723  0.66015246  0.15136905     0.09400
H1149       H  0.85018553  0.58663578  0.10536306     0.07400
Br1150     Br  0.80393021  0.61024489  0.11503843    -0.03200
C1151       C  0.70924895  0.88711335  0.21029864    -0.09900
C1152       C  0.68709373  0.87864663  0.21946426     0.06300
C1153       C  0.67397513  0.89381008  0.23545916    -0.03600
C1154       C  0.68427523  0.91539217  0.24391183    -0.08100
C1155       C  0.70729093  0.92273615  0.23623475     0.05500
C1156       C  0.71925371  0.90886270  0.21846187    -0.03100
Br1157     Br  0.75047942  0.91804379  0.20648757    -0.02800
H1158       H  0.71938359  0.87632557  0.19738920     0.09400
H1159       H  0.67495327  0.92563121  0.25784308     0.07400
Br1160     Br  0.64194505  0.88631514  0.24640956    -0.03200
C1161       C  0.58563239  0.79934089  0.24513893    -0.09900
C1162       C  0.59312545  0.79142520  0.22212944     0.06300
C1163       C  0.57696395  0.77683118  0.20863292    -0.03600
C1164       C  0.55503317  0.76917007  0.21892047    -0.08100
C1165       C  0.54853536  0.77568545  0.24253299     0.05500
C1166       C  0.56380389  0.79142742  0.25537344    -0.03100
Br1167     Br  0.55665651  0.80037039  0.28814057    -0.02800
H1168       H  0.59733137  0.81076856  0.25577684     0.09400
H1169       H  0.54391235  0.75647733  0.20909780     0.07400
Br1170     Br  0.58374356  0.76561695  0.17645181    -0.03200
C1171       C  0.71764323  0.74624307  0.21368294    -0.09900
C1172       C  0.71149733  0.75760164  0.19191150     0.06300
C1173       C  0.72360711  0.74997186  0.17062034    -0.03600
C1174       C  0.74131648  0.73181096  0.17157050    -0.08100
C1175       C  0.74763126  0.72057670  0.19336559     0.05500
C1176       C  0.73524805  0.72794733  0.21461192    -0.03100
Br1177     Br  0.74094377  0.71382803  0.24561377    -0.02800
H1178       H  0.70857802  0.75154649  0.23024498     0.09400
H1179       H  0.75042257  0.72662263  0.15499511     0.07400
Br1180     Br  0.71782253  0.76403800  0.13961177    -0.03200
C1181       C  0.87656503  0.79354233  0.28648398    -0.09900
C1182       C  0.86942495  0.78558754  0.30946292     0.06300
C1183       C  0.88613231  0.77189160  0.32304410    -0.03600
C1184       C  0.90835119  0.76494727  0.31285005    -0.08100
C1185       C  0.91444422  0.77107590  0.28913315     0.05500
C1186       C  0.89861895  0.78616595  0.27622188    -0.03100
Br1187     Br  0.90532564  0.79501027  0.24344485    -0.02800
H1188       H  0.86441347  0.80446991  0.27589111     0.09400
H1189       H  0.91995500  0.75283347  0.32275835     0.07400
Br1190     Br  0.87981049  0.76122223  0.35534550    -0.03200
C1191       C  0.76073007  0.88494174  0.32670538    -0.09900
C1192       C  0.78143209  0.87449994  0.31616722     0.06300
C1193       C  0.79440680  0.88799065  0.29881434    -0.03600
C1194       C  0.78553203  0.91041371  0.29117120    -0.08100
C1195       C  0.76383880  0.91988854  0.30044122     0.05500
C1196       C  0.75179592  0.90715414  0.31880846    -0.03100
Br1197     Br  0.72138604  0.91806685  0.33155967    -0.02800
H1198       H  0.75061630  0.87519317  0.34026330     0.09400
H1199       H  0.79461035  0.91957710  0.27651070     0.07400
Br1200     Br  0.82399513  0.87680511  0.28438858    -0.03200
C1201       C  0.74526339  0.73901701  0.35911939    -0.09900
C1202       C  0.74748859  0.75515818  0.33969547     0.06300
C1203       C  0.73070522  0.75291897  0.32055592    -0.03600
C1204       C  0.71270645  0.73500089  0.32112544    -0.08100
C1205       C  0.71054867  0.71895418  0.34054107     0.05500
C1206       C  0.72730058  0.72104667  0.35959105    -0.03100
Br1207     Br  0.72792825  0.69853164  0.38573883    -0.02800
H1208       H  0.75797148  0.73996819  0.37386626     0.09400
H1209       H  0.70007678  0.73379759  0.30632087     0.07400
Br1210     Br  0.73051707  0.77413890  0.29333793    -0.03200
C1211       C  0.76299975  0.38986924  0.21435095    -0.09900
C1212       C  0.78345567  0.37913156  0.22479564     0.06300
C1213       C  0.79715961  0.39309856  0.24132133    -0.03600
C1214       C  0.78914864  0.41610286  0.24836934    -0.08100
C1215       C  0.76768243  0.42584417  0.23936232     0.05500
C1216       C  0.75514611  0.41290142  0.22149153    -0.03100
Br1217     Br  0.72523035  0.42484168  0.20890550    -0.02800
H1218       H  0.75247661  0.37998496  0.20119984     0.09400
H1219       H  0.79853583  0.42547708  0.26273560     0.07400
Br1220     Br  0.82576829  0.38150888  0.25693766    -0.03200
C1221       C  0.80174253  0.25344083  0.09829403    -0.09900
C1222       C  0.78125481  0.26141508  0.08586321     0.06300
C1223       C  0.76771455  0.28056486  0.09574963    -0.03600
C1224       C  0.77355338  0.29007737  0.11846501    -0.08100
C1225       C  0.79300108  0.28090860  0.13185198     0.05500
C1226       C  0.80788882  0.26308029  0.12090588    -0.03100
Br1227     Br  0.83558718  0.24928685  0.13635378    -0.02800
H1228       H  0.81186549  0.23817074  0.09131253     0.09400
H1229       H  0.76224607  0.30418146  0.12602524     0.07400
Br1230     Br  0.73918093  0.29214977  0.08012471    -0.03200
C1231       C  0.87755281  0.36369854  0.12737059    -0.09900
C1232       C  0.87607467  0.38844397  0.13311568     0.06300
C1233       C  0.86807910  0.39518172  0.15659895    -0.03600
C1234       C  0.85966790  0.37750706  0.17243070    -0.08100
C1235       C  0.85909271  0.35325038  0.16552789     0.05500
C1236       C  0.86887013  0.34625095  0.14321456    -0.03100
Br1237     Br  0.86792668  0.31333620  0.13253521    -0.02800
H1238       H  0.88409699  0.35782554  0.10985145     0.09400
H1239       H  0.85160038  0.38296356  0.18947517     0.07400
Br1240     Br  0.86537143  0.42786890  0.16799793    -0.03200
C1241       C  0.68485068  0.08485587  0.23082952    -0.09900
C1242       C  0.70079887  0.10071902  0.21896479     0.06300
C1243       C  0.72451518  0.09250757  0.21383825    -0.03600
C1244       C  0.73199454  0.06976084  0.22178558    -0.08100
C1245       C  0.71662674  0.05481527  0.23528972     0.05500
C1246       C  0.69266098  0.06233367  0.23922656    -0.03100
Br1247     Br  0.67105344  0.04391025  0.25895248    -0.02800
H1248       H  0.66649343  0.09045592  0.23476065     0.09400
H1249       H  0.75076480  0.06464987  0.21938661     0.07400
Br1250     Br  0.74850088  0.11177111  0.19785899    -0.03200
C1251       C  0.73031002  0.17538613  0.12531789    -0.09900
C1252       C  0.70602088  0.18143105  0.12937727     0.06300
C1253       C  0.69267167  0.19117267  0.10995432    -0.03600
C1254       C  0.70440941  0.19725872  0.08824651    -0.08100
C1255       C  0.72933561  0.19369178  0.08535732     0.05500
C1256       C  0.74192467  0.18140299  0.10370044    -0.03100
Br1257     Br  0.77598435  0.17515743  0.10130306    -0.02800
H1258       H  0.74078756  0.16720629  0.13954867     0.09400
H1259       H  0.69445097  0.20681372  0.07451690     0.07400
Br1260     Br  0.65858800  0.19718542  0.11187349    -0.03200
C1261       C  0.78978166  0.05857663  0.29980522    -0.09900
C1262       C  0.76574648  0.05232569  0.30484385     0.06300
C1263       C  0.75179491  0.06814859  0.31922458    -0.03600
C1264       C  0.76092636  0.09063893  0.32612994    -0.08100
C1265       C  0.78422202  0.09796687  0.31923251     0.05500
C1266       C  0.79921716  0.08098829  0.30704648    -0.03100
Br1267     Br  0.83235009  0.08721322  0.29874462    -0.02800
H1268       H  0.80063360  0.04689610  0.28833837     0.09400
H1269       H  0.74923862  0.10286176  0.33608931     0.07400
Br1270     Br  0.71878553  0.06102859  0.32707156    -0.03200
C1271       C  0.78728042  0.22498916  0.27338617    -0.09900
C1272       C  0.80806388  0.22140468  0.28748355     0.06300
C1273       C  0.82832826  0.23631386  0.28279867    -0.03600
C1274       C  0.82717675  0.25434984  0.26507471    -0.08100
C1275       C  0.80633756  0.25806467  0.25114369     0.05500
C1276       C  0.78638798  0.24265039  0.25523880    -0.03100
Br1277     Br  0.75807617  0.24323540  0.23544719    -0.02800
H1278       H  0.77166323  0.21357452  0.27608280     0.09400
H1279       H  0.84287439  0.26559758  0.26216510     0.07400
Br1280     Br  0.85841769  0.23331268  0.29961517    -0.03200
C1281       C  0.78397621  0.21655086  0.44252462    -0.09900
C1282       C  0.76227586  0.20724434  0.45158633     0.06300
C1283       C  0.75073579  0.18879681  0.43848324    -0.03600
C1284       C  0.75986308  0.18136152  0.41591775    -0.08100
C1285       C  0.78062775  0.19208164  0.40585029     0.05500
C1286       C  0.79322107  0.20926545  0.42003442    -0.03100
Br1287     Br  0.82220901  0.22515538  0.40959222    -0.02800
H1288       H  0.79266061  0.23126763  0.45199721     0.09400
H1289       H  0.75023761  0.16761193  0.40594487     0.07400
Br1290     Br  0.72147412  0.17449381  0.45021578    -0.03200
C1291       C  0.71211804  0.39078199  0.32762065    -0.09900
C1292       C  0.68992026  0.38265187  0.31849379     0.06300
C1293       C  0.67691633  0.39820955  0.30297061    -0.03600
C1294       C  0.68723257  0.42008634  0.29544245    -0.08100
C1295       C  0.71034425  0.42697682  0.30301990     0.05500
C1296       C  0.72235432  0.41246450  0.31993295    -0.03100
Br1297     Br  0.75425318  0.42020202  0.33089806    -0.02800
H1298       H  0.72230251  0.37963632  0.33991277     0.09400
H1299       H  0.67807467  0.43067126  0.28189087     0.07400
Br1300     Br  0.64584013  0.39040194  0.28991939    -0.03200
C1301       C  0.67929338  0.28316344  0.42266026    -0.09900
C1302       C  0.69521513  0.29447402  0.40632117     0.06300
C1303       C  0.71932904  0.29833737  0.41362399    -0.03600
C1304       C  0.72727288  0.28937090  0.43584366    -0.08100
C1305       C  0.71182249  0.27629576  0.45114121     0.05500
C1306       C  0.68743467  0.27398057  0.44470933    -0.03100
Br1307     Br  0.66537232  0.25575452  0.46410095    -0.02800
H1308       H  0.66058719  0.28036230  0.41780189     0.09400
H1309       H  0.74629736  0.29060369  0.44015586     0.07400
Br1310     Br  0.74318922  0.31309472  0.39326647    -0.03200
C1311       C  0.64948177  0.25204263  0.27488185    -0.09900
C1312       C  0.67095138  0.26059558  0.28531505     0.06300
C1313       C  0.69299206  0.24994848  0.27758002    -0.03600
C1314       C  0.69302972  0.23136205  0.26013308    -0.08100
C1315       C  0.67151460  0.22276547  0.24975311     0.05500
C1316       C  0.64951167  0.23351245  0.25746265    -0.03100
Br1317     Br  0.61856125  0.22428414  0.24499778    -0.02800
H1318       H  0.63233673  0.25978150  0.28036999     0.09400
H1319       H  0.71011397  0.22346648  0.25473947     0.07400
Br1320     Br  0.72383533  0.25975864  0.28990154    -0.03200
C1321       C  0.36591066  0.09097674  0.91747968    -0.09900
C1322       C  0.39068440  0.09653876  0.91914593     0.06300
C1323       C  0.39756466  0.12100680  0.91680744    -0.03600
C1324       C  0.38069852  0.13801194  0.90891574    -0.08100
C1325       C  0.35670616  0.13152889  0.90401353     0.05500
C1326       C  0.34894459  0.10819774  0.91038974    -0.03100
Br1327     Br  0.31583699  0.09800069  0.90870381    -0.02800
H1328       H  0.35963601  0.07282177  0.92065023     0.09400
H1329       H  0.38681281  0.15613433  0.90524529     0.07400
Br1330     Br  0.42930836  0.13306608  0.92366613    -0.03200
C1331       C  0.34620596  0.88706162  0.12510775    -0.09900
C1332       C  0.36745848  0.89666107  0.13500434     0.06300
C1333       C  0.36865561  0.89931018  0.16041710    -0.03600
C1334       C  0.35116376  0.88842976  0.17506734    -0.08100
C1335       C  0.33165904  0.87586946  0.16499946     0.05500
C1336       C  0.32824237  0.87704459  0.13975752    -0.03100
Br1337     Br  0.30067865  0.86373841  0.12352408    -0.02800
H1338       H  0.34402706  0.88597873  0.10575819     0.09400
H1339       H  0.35348740  0.88883598  0.19445617     0.07400
Br1340     Br  0.39323062  0.91755199  0.17661847    -0.03200
C1341       C  0.38471991  0.85185906  0.92537556    -0.09900
C1342       C  0.39159002  0.87486073  0.91739737     0.06300
C1343       C  0.39289490  0.87888008  0.89217629    -0.03600
C1344       C  0.38343853  0.86181446  0.87620380    -0.08100
C1345       C  0.37330209  0.84029726  0.88461427     0.05500
C1346       C  0.37597603  0.83449490  0.90926115    -0.03100
Br1347     Br  0.36672546  0.80399022  0.92264943    -0.02800
H1348       H  0.38479280  0.84768727  0.94441987     0.09400
H1349       H  0.38269340  0.86611890  0.85719086     0.07400
Br1350     Br  0.40698607  0.90698953  0.87775153    -0.03200
C1351       C  0.41144044  0.96680407  0.91688672    -0.09900
C1352       C  0.39701293  0.96134403  0.93700517     0.06300
C1353       C  0.38622463  0.98033552  0.95029861    -0.03600
C1354       C  0.39113201  0.00420777  0.94414030    -0.08100
C1355       C  0.40705357  0.00953465  0.92520868     0.05500
C1356       C  0.41666406  0.99065800  0.91102427    -0.03100
Br1357     Br  0.43724431  0.99644629  0.88367295    -0.02800
H1358       H  0.41979980  0.95248044  0.90643386     0.09400
H1359       H  0.38354879  0.01864121  0.95504831     0.07400
Br1360     Br  0.36493308  0.97497991  0.97718444    -0.03200
C1361       C  0.38445093  0.88926331  0.01477072    -0.09900
C1362       C  0.40151371  0.90283542  0.00191503     0.06300
C1363       C  0.42051718  0.91393762  0.01446235    -0.03600
C1364       C  0.42138630  0.91271274  0.03952991    -0.08100
C1365       C  0.40373245  0.90019641  0.05277464     0.05500
C1366       C  0.38550734  0.88769780  0.04004520    -0.03100
Br1367     Br  0.36255603  0.86715545  0.05577975    -0.02800
H1368       H  0.36997467  0.88031324  0.00519397     0.09400
H1369       H  0.43594803  0.92192563  0.04871713     0.07400
Br1370     Br  0.44631306  0.93037329  0.99810136    -0.03200
C1371       C  0.59757353  0.10009033  0.14908609    -0.09900
C1372       C  0.59724825  0.10654908  0.12456586     0.06300
C1373       C  0.60436541  0.13030336  0.11837469    -0.03600
C1374       C  0.61443490  0.14534180  0.13595453    -0.08100
C1375       C  0.61740478  0.13758542  0.15979106     0.05500
C1376       C  0.60726231  0.11536304  0.16662229    -0.03100
Br1377     Br  0.60645848  0.10436137  0.19939750    -0.02800
H1378       H  0.59107944  0.08260851  0.15474220     0.09400
H1379       H  0.62128587  0.16276033  0.13053404     0.07400
Br1380     Br  0.60202929  0.14387722  0.08661010    -0.03200
C1381       C  0.58724480  0.86672623  0.12669918    -0.09900
C1382       C  0.59233030  0.89097128  0.13216995     0.06300
C1383       C  0.61563885  0.89686175  0.14074428    -0.03600
C1384       C  0.63220676  0.87850160  0.14554228    -0.08100
C1385       C  0.62608096  0.85415996  0.14239629     0.05500
C1386       C  0.60383626  0.84841534  0.13166404    -0.03100
Br1387     Br  0.59495395  0.81591920  0.12383022    -0.02800
H1388       H  0.57001378  0.86182691  0.11910974     0.09400
H1389       H  0.64920374  0.88328215  0.15386962     0.07400
Br1390     Br  0.62559861  0.92895966  0.14919103    -0.03200
C1391       C  0.48833482  0.92940541  0.13813443    -0.09900
C1392       C  0.50519773  0.91164831  0.13100751     0.06300
C1393       C  0.49652555  0.88946737  0.12181781    -0.03600
C1394       C  0.47178802  0.88647978  0.11782486    -0.08100
C1395       C  0.45538243  0.90499953  0.12323555     0.05500
C1396       C  0.46363505  0.92624705  0.13425636    -0.03100
Br1397     Br  0.44238861  0.95267028  0.14153699    -0.02800
H1398       H  0.49438214  0.94617756  0.14541205     0.09400
H1399       H  0.46551046  0.87029196  0.10944078     0.07400
Br1400     Br  0.51700639  0.86328265  0.11188609    -0.03200
C1401       C  0.55735146  0.01058361  0.09396162    -0.09900
C1402       C  0.57696290  0.02216754  0.10485329     0.06300
C1403       C  0.59095948  0.00959160  0.12181285    -0.03600
C1404       C  0.58509746  0.98576353  0.12755229    -0.08100
C1405       C  0.56533625  0.97421714  0.11672736     0.05500
C1406       C  0.55136794  0.98691863  0.09975732    -0.03100
Br1407     Br  0.52494510  0.97268031  0.08245185    -0.02800
H1408       H  0.54662770  0.02001023  0.08070795     0.09400
H1409       H  0.59605292  0.97620784  0.14053101     0.07400
Br1410     Br  0.61921070  0.02336912  0.13624792    -0.03200
C1411       C  0.59790429  0.10841193  0.88358040    -0.09900
C1412       C  0.60698501  0.09622129  0.90372507     0.06300
C1413       C  0.63227640  0.09332128  0.90573449    -0.03600
C1414       C  0.64773722  0.10384009  0.88878534    -0.08100
C1415       C  0.63868943  0.11725698  0.86949266     0.05500
C1416       C  0.61336631  0.11904726  0.86668658    -0.03100
Br1417     Br  0.59832190  0.13815490  0.84222593    -0.02800
H1418       H  0.57861599  0.11097228  0.88165652     0.09400
H1419       H  0.66706804  0.10225012  0.89122321     0.07400
Br1420     Br  0.64729110  0.07516563  0.93081305    -0.03200
C1421       C  0.57197606  0.10013748  0.00480804    -0.09900
C1422       C  0.58597131  0.08520740  0.98972061     0.06300
C1423       C  0.60167401  0.06823883  0.00000297    -0.03600
C1424       C  0.60251039  0.06584919  0.02503773    -0.08100
C1425       C  0.58786060  0.08015909  0.04006150     0.05500
C1426       C  0.57279481  0.09775346  0.02984819    -0.03100
Br1427     Br  0.55074667  0.11672328  0.04891183    -0.02800
H1428       H  0.55934342  0.11278199  0.99700234     0.09400
H1429       H  0.61399294  0.05213170  0.03279580     0.07400
Br1430     Br  0.61999443  0.04587291  0.98085577    -0.03200
C1431       C  0.51231155  0.08469568  0.91185828    -0.09900
C1432       C  0.52492694  0.07133614  0.92915354     0.06300
C1433       C  0.51243352  0.05376172  0.94262986    -0.03600
C1434       C  0.48759979  0.05099547  0.93979059    -0.08100
C1435       C  0.47471439  0.06512160  0.92336105     0.05500
C1436       C  0.48738371  0.08159486  0.90876837    -0.03100
Br1437     Br  0.47195556  0.09896660  0.88333922    -0.02800
H1438       H  0.52175133  0.09793823  0.90107102     0.09400
H1439       H  0.47825621  0.03772721  0.95064670     0.07400
Br1440     Br  0.52835523  0.03206150  0.96433443    -0.03200
C1441       C  0.39067167  0.36111040  0.63319983    -0.09900
C1442       C  0.38208188  0.38433101  0.62780603     0.06300
C1443       C  0.35699597  0.38895666  0.63045845    -0.03600
C1444       C  0.34212019  0.37164670  0.64107676    -0.08100
C1445       C  0.35152285  0.34973142  0.64930103     0.05500
C1446       C  0.37585100  0.34397921  0.64407270    -0.03100
Br1447     Br  0.39134192  0.31468441  0.65408664    -0.02800
H1448       H  0.40956393  0.35665583  0.63069725     0.09400
H1449       H  0.32333287  0.37607711  0.64444185     0.07400
Br1450     Br  0.34138253  0.41857153  0.62158967    -0.03200
C1451       C  0.38674234  0.59159761  0.38237286    -0.09900
C1452       C  0.37885573  0.58786025  0.40624608     0.06300
C1453       C  0.35361745  0.58829748  0.41090929    -0.03600
C1454       C  0.33770344  0.59574314  0.39292590    -0.08100
C1455       C  0.34612261  0.60280155  0.37012563     0.05500
C1456       C  0.37071355  0.59887431  0.36436860    -0.03100
Br1457     Br  0.38411051  0.60445871  0.33285199    -0.02800
H1458       H  0.40572392  0.59020814  0.37782104     0.09400
H1459       H  0.31876393  0.59777766  0.39750989     0.07400
Br1460     Br  0.33892409  0.57997909  0.44125599    -0.03200
C1461       C  0.58956306  0.37567795  0.39380430    -0.09900
C1462       C  0.59290265  0.36898263  0.41804899     0.06300
C1463       C  0.60113086  0.34528428  0.42275965    -0.03600
C1464       C  0.60915841  0.33069947  0.40358463    -0.08100
C1465       C  0.60890341  0.33906032  0.37969998     0.05500
C1466       C  0.59727562  0.36099184  0.37478547    -0.03100
Br1467     Br  0.59242672  0.37248532  0.34255922    -0.02800
H1468       H  0.58196190  0.39306158  0.38939483     0.09400
H1469       H  0.61752681  0.31354055  0.40766313     0.07400
Br1470     Br  0.60361627  0.33178351  0.45448729    -0.03200
C1471       C  0.58835783  0.61353511  0.41335608    -0.09900
C1472       C  0.59675673  0.58955678  0.41270326     0.06300
C1473       C  0.62121195  0.58537965  0.40606798    -0.03600
C1474       C  0.63533954  0.60448266  0.39768839    -0.08100
C1475       C  0.62575258  0.62776013  0.39554346     0.05500
C1476       C  0.60253805  0.63249801  0.40489295    -0.03100
Br1477     Br  0.58887826  0.66431276  0.40586514    -0.02800
H1478       H  0.57019201  0.61760717  0.41951018     0.09400
H1479       H  0.65332004  0.60061824  0.39086333     0.07400
Br1480     Br  0.63660251  0.55430016  0.40575701    -0.03200
C1481       C  0.56637573  0.48579235  0.41335073    -0.09900
C1482       C  0.57717488  0.50383816  0.42734299     0.06300
C1483       C  0.59275548  0.49730089  0.44619335    -0.03600
C1484       C  0.59609076  0.47296215  0.45165567    -0.08100
C1485       C  0.58455982  0.45482506  0.43823941     0.05500
C1486       C  0.57013274  0.46144795  0.41837099    -0.03100
Br1487     Br  0.55318587  0.43861617  0.39858832    -0.02800
H1488       H  0.55438137  0.49071018  0.39877973     0.09400
H1489       H  0.60743666  0.46819587  0.46677556     0.07400
Br1490     Br  0.60828607  0.52077429  0.46631910    -0.03200
C1491       C  0.47659735  0.56330643  0.44982053    -0.09900
C1492       C  0.46381826  0.57646230  0.43243694     0.06300
C1493       C  0.47607274  0.58369122  0.41121588    -0.03600
C1494       C  0.50043252  0.57733454  0.40779453    -0.08100
C1495       C  0.51280605  0.56385246  0.42516994     0.05500
C1496       C  0.50075459  0.55715571  0.44645933    -0.03100
Br1497     Br  0.51685903  0.54124446  0.47253749    -0.02800
H1498       H  0.46778009  0.55770556  0.46636186     0.09400
H1499       H  0.50978526  0.58300816  0.39156229     0.07400
Br1500     Br  0.46135257  0.60352558  0.38714360    -0.03200
C1501       C  0.62526886  0.39337288  0.63681141    -0.09900
C1502       C  0.60079361  0.38759246  0.64052601     0.06300
C1503       C  0.59422170  0.37486308  0.66158490    -0.03600
C1504       C  0.61206855  0.36712160  0.67742192    -0.08100
C1505       C  0.63667379  0.37088232  0.67249264     0.05500
C1506       C  0.64318015  0.38509626  0.65250646    -0.03100
Br1507     Br  0.67612417  0.39313205  0.64529775    -0.02800
H1508       H  0.63062974  0.40356534  0.62106694     0.09400
H1509       H  0.60665485  0.35600890  0.69252660     0.07400
Br1510     Br  0.56196967  0.36388725  0.66841349    -0.03200
C1511       C  0.50084235  0.38830854  0.60031356    -0.09900
C1512       C  0.51702416  0.40187690  0.61425260     0.06300
C1513       C  0.50787505  0.41844262  0.63138252    -0.03600
C1514       C  0.48293452  0.42221053  0.63309945    -0.08100
C1515       C  0.46685599  0.40916118  0.61854440     0.05500
C1516       C  0.47595837  0.39159348  0.60249061    -0.03100
Br1517     Br  0.45561655  0.37291254  0.58163401    -0.02800
H1518       H  0.50763317  0.37533519  0.58727336     0.09400
H1519       H  0.47605890  0.43559292  0.64567238     0.07400
Br1520     Br  0.52833746  0.43754878  0.65169811    -0.03200
C1521       C  0.56608999  0.37919625  0.53838632    -0.09900
C1522       C  0.58059952  0.39280205  0.55406832     0.06300
C1523       C  0.59920876  0.40711132  0.54437758    -0.03600
C1524       C  0.60185273  0.40891490  0.51931517    -0.08100
C1525       C  0.58674143  0.39599369  0.50362489     0.05500
C1526       C  0.56920389  0.38043165  0.51337504    -0.03100
Br1527     Br  0.54739756  0.36235695  0.49350052    -0.02800
H1528       H  0.55170171  0.36811773  0.54562956     0.09400
H1529       H  0.61541162  0.42092631  0.51201187     0.07400
Br1530     Br  0.62007948  0.42616151  0.56434033    -0.03200
C1531       C  0.37408386  0.62529838  0.62109995    -0.09900
C1532       C  0.38519545  0.60378586  0.62827042     0.06300
C1533       C  0.38942733  0.60013820  0.65315009    -0.03600
C1534       C  0.37918664  0.61592289  0.67018262    -0.08100
C1535       C  0.36601767  0.63616608  0.66284476     0.05500
C1536       C  0.36475950  0.64151062  0.63805777    -0.03100
Br1537     Br  0.34761685  0.66878794  0.62576291    -0.02800
H1538       H  0.37110643  0.62889435  0.60216588     0.09400
H1539       H  0.38081698  0.61194486  0.68921696     0.07400
Br1540     Br  0.40935526  0.57452627  0.66509647    -0.03200
C1541       C  0.38572717  0.56103555  0.52601160    -0.09900
C1542       C  0.39306301  0.57884503  0.54258696     0.06300
C1543       C  0.40274203  0.60064737  0.53350854    -0.03600
C1544       C  0.40655899  0.60321308  0.50861892    -0.08100
C1545       C  0.40002848  0.58490384  0.49244526     0.05500
C1546       C  0.38895592  0.56397189  0.50124005    -0.03100
Br1547     Br  0.37965176  0.53798031  0.48030129    -0.02800
H1548       H  0.37783162  0.54435416  0.53232467     0.09400
H1549       H  0.41508114  0.61942212  0.50186334     0.07400
Br1550     Br  0.41230663  0.62723803  0.55360271    -0.03200
C1551       C  0.38555178  0.47561316  0.59964244    -0.09900
C1552       C  0.40298501  0.46978297  0.61689366     0.06300
C1553       C  0.41424020  0.48831808  0.63009914    -0.03600
C1554       C  0.40900044  0.51231094  0.62487923    -0.08100
C1555       C  0.39288533  0.51821088  0.60639914     0.05500
C1556       C  0.38054621  0.49962981  0.59416972    -0.03100
Br1557     Br  0.35656666  0.50587004  0.57011383    -0.02800
H1558       H  0.37652388  0.46142590  0.58964764     0.09400
H1559       H  0.41838922  0.52642546  0.63462453     0.07400
Br1560     Br  0.43667218  0.48191411  0.65556222    -0.03200
C1561       C  0.13040102  0.10013979  0.62638866    -0.09900
C1562       C  0.10589439  0.10656651  0.62869381     0.06300
C1563       C  0.10005681  0.13016021  0.63663981    -0.03600
C1564       C  0.11842716  0.14574378  0.64388809    -0.08100
C1565       C  0.14260829  0.13817087  0.64439744     0.05500
C1566       C  0.14870582  0.11562586  0.63420604    -0.03100
Br1567     Br  0.18145992  0.10441576  0.63162923    -0.02800
H1568       H  0.13536233  0.08244219  0.61960252     0.09400
H1569       H  0.11336262  0.16301217  0.65164508     0.07400
Br1570     Br  0.06762379  0.14155681  0.64196017    -0.03200
C1571       C  0.89858081  0.11141273  0.63756103    -0.09900
C1572       C  0.88958910  0.10114221  0.61613491     0.06300
C1573       C  0.86416437  0.09939141  0.61342302    -0.03600
C1574       C  0.84875293  0.10988065  0.63083003    -0.08100
C1575       C  0.85825460  0.12165103  0.65109741     0.05500
C1576       C  0.88328158  0.12158069  0.65475573    -0.03100
Br1577     Br  0.89769877  0.13668814  0.68240061    -0.02800
H1578       H  0.91781012  0.11268036  0.64071279     0.09400
H1579       H  0.82942944  0.10997710  0.62787479     0.07400
Br1580     Br  0.84908861  0.08311390  0.58684294    -0.03200
C1581       C  0.97940489  0.08295635  0.61908965    -0.09900
C1582       C  0.97442225  0.08734135  0.59460773     0.06300
C1583       C  0.99405691  0.09062168  0.57843861    -0.03600
C1584       C  0.01775278  0.08808798  0.58670397    -0.08100
C1585       C  0.02234580  0.08242161  0.61079491     0.05500
C1586       C  0.00308729  0.08048769  0.62718933    -0.03100
Br1587     Br  0.00838984  0.07474700  0.66084478    -0.02800
H1588       H  0.96483679  0.08085594  0.63200872     0.09400
H1589       H  0.03266338  0.08988617  0.57411728     0.07400
Br1590     Br  0.99033810  0.09917717  0.54512944    -0.03200
C1591       C  0.11027098  0.86445451  0.62105988    -0.09900
C1592       C  0.09934498  0.88443637  0.63238325     0.06300
C1593       C  0.09758129  0.88473618  0.65789818    -0.03600
C1594       C  0.10911390  0.86676969  0.67133762    -0.08100
C1595       C  0.12229871  0.84845842  0.65974684     0.05500
C1596       C  0.12167864  0.84665341  0.63443035    -0.03100
Br1597     Br  0.13721906  0.82084158  0.61699596    -0.02800
H1598       H  0.11129185  0.86322909  0.60159545     0.09400
H1599       H  0.10919627  0.86809521  0.69084276     0.07400
Br1600     Br  0.08001481  0.90896494  0.67559524    -0.03200
C1601       C  0.07084931  0.97955274  0.63647016    -0.09900
C1602       C  0.08846272  0.97175235  0.61991455     0.06300
C1603       C  0.10453052  0.98860459  0.60987171    -0.03600
C1604       C  0.10138811  0.01311947  0.61460689    -0.08100
C1605       C  0.08219609  0.02119494  0.62912482     0.05500
C1606       C  0.06759070  0.00418327  0.64111432    -0.03100
Br1607     Br  0.04294064  0.01373752  0.66369622    -0.02800
H1608       H  0.05874421  0.96661329  0.64472381     0.09400
H1609       H  0.11299339  0.02598062  0.60555713     0.07400
Br1610     Br  0.13056636  0.97900648  0.58892817    -0.03200
C1611       C  0.11566791  0.86958460  0.43052855    -0.09900
C1612       C  0.09786439  0.88476614  0.42102614     0.06300
C1613       C  0.09730268  0.88859030  0.39583064    -0.03600
C1614       C  0.11268996  0.87535322  0.38058989    -0.08100
C1615       C  0.12851854  0.85820393  0.39010697     0.05500
C1616       C  0.13078958  0.85621120  0.41532575    -0.03100
Br1617     Br  0.15358465  0.83473455  0.43000833    -0.02800
H1618       H  0.11675266  0.86674743  0.44981014     0.09400
H1619       H  0.11112682  0.87731206  0.36122651     0.07400
Br1620     Br  0.07575707  0.91124963  0.38115019    -0.03200
C1621       C  0.09043179  0.89766811  0.51319695    -0.09900
C1622       C  0.07016689  0.90852283  0.50250280     0.06300
C1623       C  0.05534914  0.92374548  0.51688135    -0.03600
C1624       C  0.06070209  0.92736442  0.54124913    -0.08100
C1625       C  0.08049753  0.91601308  0.55196347     0.05500
C1626       C  0.09566499  0.90127558  0.53765979    -0.03100
Br1627     Br  0.12457019  0.88696404  0.55016325    -0.02800
H1628       H  0.10222812  0.88616591  0.50254210     0.09400
H1629       H  0.04914116  0.93902202  0.55200452     0.07400
Br1630     Br  0.02823447  0.94132958  0.50451597    -0.06800
C1631       C  0.88182335  0.11924570  0.41022194    -0.09900
C1632       C  0.88654707  0.09628062  0.40033722     0.06300
C1633       C  0.88432588  0.09321580  0.37501688    -0.03600
C1634       C  0.87411508  0.11161367  0.36113510    -0.08100
C1635       C  0.86635171  0.13317566  0.37193885     0.05500
C1636       C  0.87197971  0.13758848  0.39627425    -0.03100
Br1637     Br  0.86541803  0.16799322  0.41172262    -0.02800
H1638       H  0.88442350  0.12273650  0.42927062     0.09400
H1639       H  0.87047650  0.10825441  0.34222182     0.07400
Br1640     Br  0.89426611  0.06461363  0.35799693    -0.03200
C1641       C  0.92520168  0.06035760  0.52010374    -0.09900
C1642       C  0.91257880  0.07904702  0.53180942     0.06300
C1643       C  0.89566119  0.09262693  0.51861845    -0.03600
C1644       C  0.89190027  0.08743949  0.49416462    -0.08100
C1645       C  0.90438869  0.06856900  0.48260042     0.05500
C1646       C  0.92115445  0.05489493  0.49586240    -0.03100
Br1647     Br  0.94016802  0.02940390  0.48174519    -0.02800
H1648       H  0.93839045  0.04986991  0.52991054     0.09400
H1649       H  0.87895104  0.09805814  0.48418760     0.07400
Br1650     Br  0.87818012  0.11925548  0.53241147    -0.03200
C1651       C  0.85463446  0.88003937  0.40865179    -0.09900
C1652       C  0.87920956  0.87343752  0.40831903     0.06300
C1653       C  0.88504751  0.84899259  0.40341780    -0.03600
C1654       C  0.86684198  0.83290792  0.39647576    -0.08100
C1655       C  0.84272977  0.84043735  0.39396068     0.05500
C1656       C  0.83653804  0.86402295  0.40147445    -0.03100
Br1657     Br  0.80422137  0.87665563  0.40046259    -0.02800
H1658       H  0.84938954  0.89830524  0.41325419     0.09400
H1659       H  0.87199609  0.81478322  0.39119254     0.07400
Br1660     Br  0.91732686  0.83614179  0.40349612    -0.03200
C1661       C  0.88412002  0.96704260  0.42907189    -0.09900
C1662       C  0.89935617  0.95974908  0.41013928     0.06300
C1663       C  0.90899347  0.97718729  0.39447028    -0.03600
C1664       C  0.90449585  0.00165659  0.39879264    -0.08100
C1665       C  0.89102921  0.00906196  0.41903319     0.05500
C1666       C  0.88009787  0.99146977  0.43379331    -0.03100
Br1667     Br  0.86014010  0.99965729  0.46111052    -0.02800
H1668       H  0.87650681  0.95374576  0.44114448     0.09400
H1669       H  0.91292504  0.01493421  0.38726108     0.07400
Br1670     Br  0.92890214  0.96849027  0.36739048    -0.03200
C1671       C  0.96844565  0.89133569  0.44298877    -0.09900
C1672       C  0.96345085  0.90079667  0.42021116     0.06300
C1673       C  0.98266983  0.90755945  0.40501154    -0.03600
C1674       C  0.00647456  0.90583739  0.41321388    -0.08100
C1675       C  0.01150405  0.89769705  0.43664650     0.05500
C1676       C  0.99216453  0.88977882  0.45134964    -0.03100
Br1677     Br  0.99666106  0.87600012  0.48270215    -0.02800
H1678       H  0.95373750  0.88591498  0.45469087     0.09400
H1679       H  0.02101197  0.91155958  0.40147442     0.07400
Br1680     Br  0.97725952  0.91881525  0.37284569    -0.03200
loop_ 
_geom_bond_atom_site_label_1 
_geom_bond_atom_site_label_2 
_geom_bond_distance 
_geom_bond_site_symmetry_2 
_ccdc_geom_bond_type 
C1            N2   1.360       .  A
C1            N6   1.362       .  A
C1         C1652   1.497       .  S
N2            C3   1.359       .  A
C3            N4   1.355       .  A
C3         C1672   1.470       .  S
N4            C5   1.355       .  A
C5            N6   1.357       .  A
C5         C1662   1.471       .  S
C7            N8   1.363       .  A
C7           N12   1.363       .  A
C7         C1632   1.493       .  S
N8            C9   1.360       .  A
C9           N10   1.353       .  A
C9         C1665   1.475       .  S
N10          C11   1.351       .  A
C11          N12   1.357       .  A
C11        C1645   1.476       .  S
C13          N14   1.358       .  A
C13          N18   1.361       .  A
C13        C1612   1.479       .  S
N14          C15   1.356       .  A
C15          N16   1.357       .  A
C15        C1675   1.482       .  S
N16          C17   1.358       .  A
C17          N18   1.360       .  A
C17        C1622   1.488       .  S
C19          N20   1.362       .  A
C19          N24   1.361       .  A
C19        C1592   1.486       .  S
N20          C21   1.356       .  A
C21          N22   1.355       .  A
C21        C1625   1.476       .  S
N22          C23   1.357       .  A
C23          N24   1.358       .  A
C23        C1602   1.469       .  S
C25          N26   1.358       .  A
C25          N30   1.362       .  A
C25        C1572   1.493       .  S
N26          C27   1.353       .  A
C27          N28   1.354       .  A
C27        C1582   1.485       .  S
N28          C29   1.358       .  A
C29          N30   1.363       .  A
C29        C1642   1.479       .  S
C31          N32   1.362       .  A
C31          N36   1.358       .  A
C31        C1562   1.484       .  S
N32          C33   1.359       .  A
C33          N34   1.355       .  A
C33        C1605   1.472       .  S
N34          C35   1.354       .  A
C35          N36   1.355       .  A
C35        C1585   1.463       .  S
C37          N38   1.362       .  A
C37          N42   1.357       .  A
C37        C1532   1.485       .  S
N38          C39   1.358       .  A
C39          N40   1.358       .  A
C39        C1542   1.488       .  S
N40          C41   1.354       .  A
C41          N42   1.355       .  A
C41        C1555   1.471       .  S
C43          N44   1.360       .  A
C43          N48   1.363       .  A
C43        C1502   1.483       .  S
N44          C45   1.356       .  A
C45          N46   1.354       .  A
C45        C1512   1.473       .  S
N46          C47   1.353       .  A
C47          N48   1.359       .  A
C47        C1522   1.475       .  S
C49          N50   1.362       .  A
C49          N54   1.359       .  A
C49        C1472   1.491       .  S
N50          C51   1.355       .  A
C51          N52   1.355       .  A
C51        C1495   1.471       .  S
N52          C53   1.355       .  A
C53          N54   1.357       .  A
C53        C1482   1.471       .  S
C55          N56   1.361       .  A
C55          N60   1.359       .  A
C55        C1462   1.493       .  S
N56          C57   1.362       .  A
C57          N58   1.358       .  A
C57        C1525   1.476       .  S
N58          C59   1.356       .  A
C59          N60   1.353       .  A
C59        C1485   1.478       .  S
C61          N62   1.359       .  A
C61          N66   1.365       .  A
C61        C1452   1.495       .  S
N62          C63   1.354       .  A
C63          N64   1.351       .  A
C63        C1545   1.468       .  S
N64          C65   1.357       .  A
C65          N66   1.361       .  A
C65        C1492   1.485       .  S
C67          N68   1.357       .  A
C67          N72   1.361       .  A
C67        C1442   1.489       .  S
N68          C69   1.355       .  A
C69          N70   1.354       .  A
C69        C1552   1.467       .  S
N70          C71   1.354       .  A
C71          N72   1.356       .  A
C71        C1515   1.470       .  S
C73          N74   1.363       .  A
C73          N78   1.366       .  A
C73        C1412   1.487       .  S
N74          C75   1.357       .  A
C75          N76   1.349       .  A
C75        C1422   1.465       .  S
N76          C77   1.350       .  A
C77          N78   1.360       .  A
C77        C1432   1.476       .  S
C79          N80   1.364       .  A
C79          N84   1.359       .  A
C79        C1382   1.486       .  S
N80          C81   1.359       .  A
C81          N82   1.354       .  A
C81        C1392   1.484       .  S
N82          C83   1.352       .  A
C83          N84   1.357       .  A
C83        C1405   1.476       .  S
C85          N86   1.363       .  A
C85          N90   1.357       .  A
C85        C1372   1.492       .  S
N86          C87   1.358       .  A
C87          N88   1.354       .  A
C87        C1402   1.472       .  S
N88          C89   1.354       .  A
C89          N90   1.355       .  A
C89        C1425   1.466       .  S
C91          N92   1.366       .  A
C91          N96   1.359       .  A
C91        C1342   1.491       .  S
N92          C93   1.361       .  A
C93          N94   1.354       .  A
C93        C1362   1.473   1_556  S
N94          C95   1.352       .  A
C95          N96   1.356       .  A
C95        C1352   1.474       .  S
C97          N98   1.361       .  A
C97         N102   1.367       .  A
C97        C1332   1.493       .  S
N98          C99   1.355       .  A
C99         N100   1.351       .  A
C99        C1395   1.466       .  S
N100        C101   1.354       .  A
C101        N102   1.362       .  A
C101       C1365   1.486       .  S
C103        N104   1.363       .  A
C103        N108   1.362       .  A
C103       C1322   1.497       .  S
N104        C105   1.360       .  A
C105        N106   1.353       .  A
C105       C1435   1.476       .  S
N106        C107   1.352       .  A
C107        N108   1.356       .  A
C107       C1355   1.468       .  S
In109       O111   2.247       .  S
In109       O112   2.278       .  S
In109       O120   2.282       .  S
In109       O114   2.289       .  S
In109       O116   2.255       .  S
In109       O117   2.259       .  S
In109       O118   2.239       .  S
In109       O121   2.269       .  S
C110       C1465   1.477       .  S
C110        O116   1.259       .  A
C110        O118   1.258       .  A
O111        C119   1.260       .  A
O112        C119   1.264       .  A
C113       C1312   1.506       .  S
C113        O120   1.257       .  A
C113        O114   1.260       .  A
C115       C1292   1.497       .  S
C115        O117   1.265       .  A
C115        O121   1.262       .  A
C119       C1302   1.494       .  S
C122        N123   1.374       .  A
C122        N127   1.375       .  A
C122        C483   1.501       .  S
N123        C124   1.367       .  A
C124        N125   1.344       .  A
C124       C1282   1.475       .  S
N125        C126   1.344       .  A
C126        N127   1.367       .  A
C126       C1305   1.477       .  S
In128       O130   2.243       .  S
In128       O131   2.277       .  S
In128       O139   2.293       .  S
In128       O133   2.278       .  S
In128       O135   2.280       .  S
In128       O136   2.267       .  S
In128       O137   2.219       .  S
In128       O140   2.259       .  S
C129       C1635   1.472       .  S
C129        O135   1.263       .  A
C129        O137   1.253       .  A
O130        C138   1.262       .  A
O131        C138   1.266       .  A
C132       C1272   1.508       .  S
C132        O139   1.262       .  A
C132        O133   1.259       .  A
C134       C1265   1.496       .  S
C134        O136   1.263       .  A
C134        O140   1.257       .  A
C138       C1285   1.498       .  S
In141       O143   2.261       .  S
In141       O144   2.266       .  S
In141       O152   2.303       .  S
In141       O146   2.280       .  S
In141       O148   2.254       .  S
In141       O149   2.261       .  S
In141       O150   2.237       .  S
In141       O153   2.260       .  S
C142       C1375   1.481       .  S
C142        O148   1.260       .  A
C142        O150   1.258       .  A
O143        C151   1.260       .  A
O144        C151   1.262       .  A
C145       C1315   1.507       .  S
C145        O152   1.259       .  A
C145        O146   1.256       .  A
C147       C1242   1.496       .  S
C147        O149   1.263       .  A
C147        O153   1.262       .  A
C151       C1252   1.492       .  S
In154       O156   2.246       .  S
In154       O157   2.262       .  S
In154       O165   2.281       .  S
In154       O159   2.273       .  S
In154       O161   2.265       .  S
In154       O162   2.277       .  S
In154       O163   2.192       .  S
In154       O166   2.240       .  S
C155       C1235   1.459       .  S
C155        O161   1.268       .  A
C155        O163   1.257       .  A
O156        C164   1.261       .  A
O157        C164   1.268       .  A
C158       C1275   1.507       .  S
C158        O165   1.265       .  A
C158        O159   1.264       .  A
C160       C1212   1.498       .  S
C160        O162   1.268       .  A
C160        O166   1.259       .  A
C164       C1225   1.495       .  S
C167        N168   1.373       .  A
C167        N172   1.377       .  A
C167        C477   1.501       .  S
N168        C169   1.364       .  A
C169        N170   1.341       .  A
C169       C1222   1.473       .  S
N170        C171   1.344       .  A
C171        N172   1.370       .  A
C171       C1255   1.481       .  S
C173        N174   1.376       .  A
C173        N178   1.376       .  A
C173        C211   1.503   1_545  S
N174        C175   1.368       .  A
C175        N176   1.342       .  A
C175       C1262   1.475       .  S
N176        C177   1.341       .  A
C177        N178   1.367       .  A
C177       C1245   1.476       .  S
C179        N180   1.373       .  A
C179        N184   1.373       .  A
C179        C230   1.495       .  S
N180        C181   1.366       .  A
C181        N182   1.344       .  A
C181       C1295   1.475       .  S
N182        C183   1.343       .  A
C183        N184   1.365       .  A
C183       C1215   1.472       .  S
In185       O187   2.249       .  S
In185       O188   2.273       .  S
In185       O196   2.289       .  S
In185       O190   2.299       .  S
In185       O192   2.258       .  S
In185       O193   2.268       .  S
In185       O194   2.260       .  S
In185       O197   2.248       .  S
C186       C1655   1.488       .  S
C186        O192   1.257       .  A
C186        O194   1.257       .  A
O187        C195   1.262       .  A
O188        C195   1.264       .  A
C189       C1202   1.509       .  S
C189        O196   1.259       .  A
C189        O190   1.261       .  A
C191       C1192   1.492       .  S
C191        O193   1.265       .  A
C191        O197   1.262       .  A
C195       C1182   1.493       .  S
In198       O200   2.249       .  S
In198       O201   2.280       .  S
In198       O209   2.280       .  S
In198       O203   2.280       .  S
In198       O205   2.256       .  S
In198       O206   2.272       .  S
In198       O207   2.254       .  S
In198       O210   2.252       .  S
C199       C1385   1.477       .  S
C199        O205   1.255       .  A
C199        O207   1.256       .  A
O200        C208   1.261       .  A
O201        C208   1.267       .  A
C202       C1172   1.503       .  S
C202        O209   1.261       .  A
C202        O203   1.260       .  A
C204       C1152   1.496       .  S
C204        O206   1.266       .  A
C204        O210   1.262       .  A
C208       C1162   1.500       .  S
C211        N212   1.376       .  A
C211        N216   1.374       .  A
N212        C213   1.368       .  A
C213        N214   1.344       .  A
C213       C1155   1.477       .  S
N214        C215   1.344       .  A
C215        N216   1.367       .  A
C215       C1195   1.475       .  S
In217       O219   2.251       .  S
In217       O220   2.289       .  S
In217       O228   2.283       .  S
In217       O222   2.274       .  S
In217       O224   2.244       .  S
In217       O225   2.261       .  S
In217       O226   2.254       .  S
In217       O229   2.232       .  S
C218       C1142   1.474       .  S
C218        O224   1.258       .  A
C218        O226   1.255       .  A
O219        C227   1.260       .  A
O220        C227   1.264       .  A
C221       C1175   1.504       .  S
C221        O228   1.260       .  A
C221        O222   1.260       .  A
C223       C1122   1.492       .  S
C223        O225   1.268       .  A
C223        O229   1.261       .  A
C227       C1132   1.496       .  S
C230        N231   1.373       .  A
C230        N235   1.371       .  A
N231        C232   1.367       .  A
C232        N233   1.346       .  A
C232       C1112   1.479       .  S
N233        C234   1.345       .  A
C234        N235   1.363       .  A
C234       C1125   1.470       .  S
C236        N237   1.374       .  A
C236        N241   1.378       .  A
C236        C306   1.507       .  S
N237        C238   1.367       .  A
C238        N239   1.343       .  A
C238       C1185   1.475       .  S
N239        C240   1.343       .  A
C240        N241   1.370       .  A
C240       C1135   1.479       .  S
In242       O244   2.258       .  S
In242       O245   2.258       .  S
In242       O253   2.291       .  S
In242       O247   2.287       .  S
In242       O249   2.256       .  S
In242       O250   2.272       .  S
In242       O251   2.243       .  S
In242       O254   2.257       .  S
C243       C1475   1.476       .  S
C243        O249   1.261       .  A
C243        O251   1.256       .  A
O244        C252   1.265       .  A
O245        C252   1.263       .  A
C246       C1205   1.501       .  S
C246        O253   1.259       .  A
C246        O247   1.259       .  A
C248       C1115   1.496       .  S
C248        O250   1.264       .  A
C248        O254   1.257       .  A
C252       C1102   1.494       .  S
C255        N256   1.372       .  A
C255        N260   1.375       .  A
C255        C331   1.498       .  S
N256        C257   1.365       .  A
C257        N258   1.345       .  A
C257       C1105   1.473       .  S
N258        C259   1.344       .  A
C259        N260   1.368       .  A
C259       C1165   1.478       .  S
In261       O263   2.243       .  S
In261       O264   2.279       .  S
In261       O272   2.291       .  S
In261       O266   2.288       .  S
In261       O268   2.267       .  S
In261       O269   2.280       .  S
In261       O270   2.248       .  S
In261       O273   2.245       .  S
C262       C1335   1.484       .  S
C262        O268   1.260       .  A
C262        O270   1.254       .  A
O263        C271   1.259       .  A
O264        C271   1.266       .  A
C265       C1095   1.508       .  S
C265        O272   1.260       .  A
C265        O266   1.258       .  A
C267       C1085   1.497       .  S
C267        O269   1.265       .  A
C267        O273   1.262       .  A
C271       C1075   1.496       .  S
C274        N275   1.376       .  A
C274        N279   1.372       .  A
C274        C363   1.496       .  S
N275        C276   1.368       .  A
C276        N277   1.343       .  A
C276       C1082   1.476       .  S
N277        C278   1.343       .  A
C278        N279   1.363       .  A
C278       C1062   1.470       .  S
In280       O282   2.265       .  S
In280       O283   2.269       .  S
In280       O291   2.299       .  S
In280       O285   2.295       .  S
In280       O287   2.265       .  S
In280       O288   2.269       .  S
In280       O289   2.243       .  S
In280       O292   2.241       .  S
C281       C1052   1.485       .  S
C281        O287   1.257       .  A
C281        O289   1.260       .  A
O282        C290   1.263       .  A
O283        C290   1.262       .  A
C284       C1045   1.509       .  S
C284        O291   1.259       .  A
C284        O285   1.259       .  A
C286       C1065   1.491       .  S
C286        O288   1.263       .  A
C286        O292   1.262       .  A
C290       C1032   1.499       .  S
In293       O295   2.278       .  S
In293       O296   2.280       .  S
In293       O304   2.274       .  S
In293       O298   2.280       .  S
In293       O300   2.269       .  S
In293       O301   2.275       .  S
In293       O302   2.206       .  S
In293       O305   2.259       .  S
C294       C1615   1.469       .  S
C294        O300   1.266       .  A
C294        O302   1.257       .  A
O295        C303   1.260       .  A
O296        C303   1.264       .  A
C297       C1092   1.506       .  S
C297        O304   1.262       .  A
C297        O298   1.263       .  A
C299       C1015   1.501       .  S
C299        O301   1.268       .  A
C299        O305   1.261       .  A
C303       C1025   1.506       .  S
C306        N307   1.374   1_655  A
C306        N311   1.378   1_655  A
N307        C308   1.367       .  A
C308        N309   1.346       .  A
C308       C1035   1.478       .  S
N309        C310   1.346       .  A
C310        N311   1.370       .  A
C310       C1022   1.485       .  S
In312       O314   2.246       .  S
In312       O315   2.263       .  S
In312       O323   2.292       .  S
In312       O317   2.294       .  S
In312       O319   2.247       .  S
In312       O320   2.256       .  S
In312       O321   2.251       .  S
In312       O324   2.268       .  S
C313       C1455   1.484       .  S
C313        O319   1.258       .  A
C313        O321   1.261       .  A
O314        C322   1.262       .  A
O315        C322   1.264       .  A
C316       C1042   1.505       .  S
C316        O323   1.259       .  A
C316        O317   1.260       .  A
C318       C1002   1.492       .  S
C318        O320   1.261       .  A
C318        O324   1.262       .  A
C322        C992   1.494       .  S
C325        N326   1.380       .  A
C325        N330   1.373       .  A
C325        C382   1.508       .  S
N326        C327   1.372       .  A
C327        N328   1.343       .  A
C327       C1012   1.485       .  S
N328        C329   1.344       .  A
C329        N330   1.365       .  A
C329       C1005   1.472       .  S
C331        N332   1.373       .  A
C331        N336   1.374       .  A
N332        C333   1.366       .  A
C333        N334   1.345       .  A
C333       C1072   1.473       .  S
N334        C335   1.345       .  A
C335        N336   1.366       .  A
C335        C995   1.478       .  S
In337       O339   2.251       .  S
In337       O340   2.264       .  S
In337       O348   2.271       .  S
In337       O342   2.288       .  S
In337       O344   2.259       .  S
In337       O345   2.280       .  S
In337       O346   2.248       .  S
In337       O349   2.226       .  S
C338       C1345   1.482       .  S
C338        O344   1.259       .  A
C338        O346   1.253       .  A
O339        C347   1.262       .  A
O340        C347   1.264       .  A
C341        C982   1.504       .  S
C341        O348   1.258       .  A
C341        O342   1.260       .  A
C343        C972   1.491       .  S
C343        O345   1.265       .  A
C343        O349   1.259       .  A
C347        C962   1.495       .  S
In350       O352   2.246       .  S
In350       O353   2.264       .  S
In350       O361   2.298       .  S
In350       O355   2.282       .  S
In350       O357   2.260       .  S
In350       O358   2.271       .  S
In350       O359   2.247       .  S
In350       O362   2.239       .  S
C351        C952   1.479       .  S
C351        O357   1.260       .  A
C351        O359   1.256       .  A
O352        C360   1.261       .  A
O353        C360   1.264       .  A
C354        C942   1.511       .  S
C354        O361   1.261       .  A
C354        O355   1.259       .  A
C356        C922   1.492       .  S
C356        O358   1.267       .  A
C356        O362   1.262       .  A
C360        C932   1.493       .  S
C363        N364   1.375   1_554  A
C363        N368   1.373   1_554  A
N364        C365   1.366       .  A
C365        N366   1.342       .  A
C365        C925   1.473       .  S
N366        C367   1.343       .  A
C367        N368   1.365       .  A
C367        C975   1.470       .  S
In369       O371   2.257       .  S
In369       O372   2.278       .  S
In369       O380   2.281       .  S
In369       O374   2.283       .  S
In369       O376   2.279       .  S
In369       O377   2.264       .  S
In369       O378   2.201       .  S
In369       O381   2.255       .  S
C370       C1595   1.469       .  S
C370        O376   1.266       .  A
C370        O378   1.254       .  A
O371        C379   1.258       .  A
O372        C379   1.264       .  A
C373        C945   1.507       .  S
C373        O380   1.263       .  A
C373        O374   1.262       .  A
C375        C902   1.495       .  S
C375        O377   1.266       .  A
C375        O381   1.262       .  A
C379        C915   1.500       .  S
C382        N383   1.376       .  A
C382        N387   1.380       .  A
N383        C384   1.368       .  A
C384        N385   1.341       .  A
C384        C905   1.473       .  S
N385        C386   1.340       .  A
C386        N387   1.370       .  A
C386        C892   1.482       .  S
C388        N389   1.372       .  A
C388        N393   1.377       .  A
C388        C502   1.502   1_565  S
N389        C390   1.365       .  A
C390        N391   1.344       .  A
C390        C965   1.473       .  S
N391        C392   1.345       .  A
C392        N393   1.369       .  A
C392        C912   1.482       .  S
In394       O396   2.244       .  S
In394       O397   2.271       .  S
In394       O405   2.288       .  S
In394       O399   2.277       .  S
In394       O401   2.249       .  S
In394       O402   2.296       .  S
In394       O403   2.263       .  S
In394       O406   2.241       .  S
C395       C1535   1.472       .  S
C395        O401   1.255       .  A
C395        O403   1.258       .  A
O396        C404   1.264       .  A
O397        C404   1.267       .  A
C398        C985   1.505       .  S
C398        O405   1.262       .  A
C398        O399   1.259       .  A
C400        C895   1.501       .  S
C400        O402   1.265       .  A
C400        O406   1.257       .  A
C404        C885   1.499       .  S
C407        N408   1.378       .  A
C407        N412   1.373       .  A
C407        C559   1.503       .  S
N408        C409   1.371       .  A
C409        N410   1.341       .  A
C409        C882   1.480       .  S
N410        C411   1.341       .  A
C411        N412   1.364       .  A
C411        C935   1.470       .  S
In413       O415   2.265       .  S
In413       O416   2.270       .  S
In413       O424   2.291       .  S
In413       O418   2.287       .  S
In413       O420   2.260       .  S
In413       O421   2.270       .  S
In413       O422   2.246       .  S
In413       O425   2.251       .  S
C414        C872   1.477       .  S
C414        O420   1.258       .  A
C414        O422   1.258       .  A
O415        C423   1.262       .  A
O416        C423   1.263       .  A
C417        C862   1.502       .  S
C417        O424   1.259       .  A
C417        O418   1.259       .  A
C419        C852   1.497       .  S
C419        O421   1.265       .  A
C419        O425   1.262       .  A
C423        C842   1.495       .  S
In426       O428   2.261       .  S
In426       O429   2.250       .  S
In426       O437   2.279       .  S
In426       O431   2.285       .  S
In426       O433   2.280       .  S
In426       O434   2.262       .  S
In426       O435   2.192       .  S
In426       O438   2.262       .  S
C427       C1575   1.465       .  S
C427        O433   1.269       .  A
C427        O435   1.256       .  A
O428        C436   1.262       .  A
O429        C436   1.266       .  A
C430        C832   1.507       .  S
C430        O437   1.263       .  A
C430        O431   1.264       .  A
C432        C815   1.495       .  S
C432        O434   1.263       .  A
C432        O438   1.262       .  A
C436        C822   1.498       .  S
C439        N440   1.375       .  A
C439        N444   1.374       .  A
C439        C534   1.500   1_655  S
N440        C441   1.367       .  A
C441        N442   1.343       .  A
C441        C812   1.474       .  S
N442        C443   1.343       .  A
C443        N444   1.367       .  A
C443        C855   1.476       .  S
In445       O447   2.262       .  S
In445       O448   2.264       .  S
In445       O456   2.295       .  S
In445       O450   2.285       .  S
In445       O452   2.237       .  S
In445       O453   2.281       .  S
In445       O454   2.262       .  S
In445       O457   2.243       .  S
C446       C1505   1.479       .  S
C446        O452   1.256       .  A
C446        O454   1.258       .  A
O447        C455   1.264       .  A
O448        C455   1.265       .  A
C449        C865   1.505       .  S
C449        O456   1.260       .  A
C449        O450   1.259       .  A
C451        C802   1.494       .  S
C451        O453   1.264       .  A
C451        O457   1.261       .  A
C455        C792   1.497       .  S
In458       O460   2.247       .  S
In458       O461   2.268       .  S
In458       O469   2.283       .  S
In458       O463   2.294       .  S
In458       O465   2.263       .  S
In458       O466   2.270       .  S
In458       O467   2.251       .  S
In458       O470   2.245       .  S
C459       C1415   1.480       .  S
C459        O465   1.257       .  A
C459        O467   1.257       .  A
O460        C468   1.262       .  A
O461        C468   1.266       .  A
C462        C835   1.506       .  S
C462        O469   1.259       .  A
C462        O463   1.262       .  A
C464        C772   1.497       .  S
C464        O466   1.266       .  A
C464        O470   1.263       .  A
C468        C782   1.497       .  S
C471        N472   1.376       .  A
C471        N476   1.373       .  A
C471        C553   1.499       .  S
N472        C473   1.368       .  A
C473        N474   1.344       .  A
C473        C775   1.475       .  S
N474        C475   1.343       .  A
C475        N476   1.365       .  A
C475        C805   1.473       .  S
C477        N478   1.374   1_554  A
C477        N482   1.375   1_554  A
N478        C479   1.368       .  A
C479        N480   1.344       .  A
C479        C785   1.475       .  S
N480        C481   1.343       .  A
C481        N482   1.366       .  A
C481        C845   1.479       .  S
C483        N484   1.375       .  A
C483        N488   1.374       .  A
N484        C485   1.368       .  A
C485        N486   1.347       .  A
C485        C825   1.481       .  S
N486        C487   1.346       .  A
C487        N488   1.366       .  A
C487        C795   1.477       .  S
In489       O491   2.267       .  S
In489       O492   2.271       .  S
In489       O500   2.290       .  S
In489       O494   2.289       .  S
In489       O496   2.255       .  S
In489       O497   2.258       .  S
In489       O498   2.257       .  S
In489       O501   2.269       .  S
C490       C1325   1.485       .  S
C490        O496   1.256       .  A
C490        O498   1.258       .  A
O491        C499   1.261       .  A
O492        C499   1.263       .  A
C493        C762   1.503       .  S
C493        O500   1.259       .  A
C493        O494   1.260       .  A
C495        C745   1.500       .  S
C495        O497   1.264       .  A
C495        O501   1.265       .  A
C499        C755   1.500       .  S
C502        N503   1.376       .  A
C502        N507   1.374       .  A
N503        C504   1.368       .  A
C504        N505   1.345       .  A
C504        C752   1.481       .  S
N505        C506   1.344       .  A
C506        N507   1.367       .  A
C506        C732   1.475       .  S
In508       O510   2.254       .  S
In508       O511   2.261       .  S
In508       O519   2.280       .  S
In508       O513   2.286       .  S
In508       O515   2.246       .  S
In508       O516   2.275       .  S
In508       O517   2.250       .  S
In508       O520   2.251       .  S
C509       C1565   1.478       .  S
C509        O515   1.259       .  A
C509        O517   1.257       .  A
O510        C518   1.265       .  A
O511        C518   1.264       .  A
C512        C725   1.498       .  S
C512        O519   1.258       .  A
C512        O513   1.259       .  A
C514        C712   1.494       .  S
C514        O516   1.263       .  A
C514        O520   1.259       .  A
C518        C735   1.494       .  S
In521       O523   2.243       .  S
In521       O524   2.286       .  S
In521       O532   2.299       .  S
In521       O526   2.282       .  S
In521       O528   2.255       .  S
In521       O529   2.284       .  S
In521       O530   2.256       .  S
In521       O533   2.243       .  S
C522        C702   1.480       .  S
C522        O528   1.257       .  A
C522        O530   1.256       .  A
O523        C531   1.260       .  A
O524        C531   1.266       .  A
C525        C765   1.506       .  S
C525        O532   1.261       .  A
C525        O526   1.259       .  A
C527        C695   1.499       .  S
C527        O529   1.267       .  A
C527        O533   1.261       .  A
C531        C682   1.499       .  S
C534        N535   1.375       .  A
C534        N539   1.376       .  A
N535        C536   1.367       .  A
C536        N537   1.342       .  A
C536        C715   1.476       .  S
N537        C538   1.342       .  A
C538        N539   1.368       .  A
C538        C692   1.476       .  S
In540       O542   2.251       .  S
In540       O543   2.281       .  S
In540       O551   2.289       .  S
In540       O545   2.281       .  S
In540       O547   2.244       .  S
In540       O548   2.278       .  S
In540       O549   2.243       .  S
In540       O552   2.249       .  S
C541       C1445   1.476       .  S
C541        O547   1.256       .  A
C541        O549   1.258       .  A
O542        C550   1.262       .  A
O543        C550   1.265       .  A
C544        C722   1.501       .  S
C544        O551   1.260       .  A
C544        O545   1.256       .  A
C546        C675   1.493       .  S
C546        O548   1.264       .  A
C546        O552   1.258       .  A
C550        C662   1.499       .  S
C553        N554   1.374       .  A
C553        N558   1.374       .  A
N554        C555   1.367       .  A
C555        N556   1.344       .  A
C555        C742   1.477       .  S
N556        C557   1.345       .  A
C557        N558   1.366       .  A
C557        C672   1.475       .  S
C559        N560   1.375       .  A
C559        N564   1.375       .  A
N560        C561   1.366       .  A
C561        N562   1.344       .  A
C561        C685   1.478       .  S
N562        C563   1.345       .  A
C563        N564   1.369       .  A
C563        C665   1.482       .  S
C565        N566   1.356       .  A
C565        N570   1.361       .  A
C565        C875   1.486       .  S
N566        C567   1.355       .  A
C567        N568   1.355       .  A
C567        C655   1.468       .  S
N568        C569   1.359       .  A
C569        N570   1.359       .  A
C569        C642   1.471       .  S
C571        N572   1.359       .  A
C571        N576   1.362       .  A
C571       C1232   1.490       .  S
N572        C573   1.356       .  A
C573        N574   1.353       .  A
C573        C632   1.463       .  S
N574        C575   1.353       .  A
C575        N576   1.357       .  A
C575        C645   1.471       .  S
C577        N578   1.362       .  A
C577        N582   1.365       .  A
C577        C955   1.498       .  S
N578        C579   1.359       .  A
C579        N580   1.351       .  A
C579        C612   1.478       .  S
N580        C581   1.352       .  A
C581        N582   1.359       .  A
C581        C622   1.473       .  S
C583        N584   1.364       .  A
C583        N588   1.360       .  A
C583       C1145   1.484       .  S
N584        C585   1.359       .  A
C585        N586   1.353       .  A
C585        C635   1.487       .  S
N586        C587   1.350       .  A
C587        N588   1.354       .  A
C587        C605   1.475       .  S
C589        N590   1.357       .  A
C589        N594   1.368       .  A
C589       C1055   1.495       .  S
N590        C591   1.351       .  A
C591        N592   1.348       .  A
C591        C602   1.460       .  S
N592        C593   1.353       .  A
C593        N594   1.365       .  A
C593        C625   1.480       .  S
C595        N596   1.355       .  A
C595        N600   1.352       .  A
C595        C615   1.464       .  S
N596        C597   1.362       .  A
C597        N598   1.362       .  A
C597        C705   1.488       .  S
N598        C599   1.362       .  A
C599        N600   1.353       .  A
C599        C652   1.484       .  S
C601        C602   1.401   1_655  A
C601        C606   1.398       .  A
C601        H608   1.083   1_655  S
C602        C603   1.403       .  A
C603        C604   1.393   1_455  A
C603       Br610   1.920       .  S
C604        C605   1.408       .  A
C604        H609   1.083       .  S
C605        C606   1.412       .  A
C606       Br607   1.919       .  S
C611        C612   1.405       .  A
C611        C616   1.399       .  A
C611        H618   1.083       .  S
C612        C613   1.416       .  A
C613        C614   1.396       .  A
C613       Br620   1.921       .  S
C614        C615   1.397       .  A
C614        H619   1.084       .  S
C615        C616   1.406       .  A
C616       Br617   1.918       .  S
C621        C622   1.404   1_554  A
C621        C626   1.404       .  A
C621        H628   1.083   1_554  S
C622        C623   1.408   1_556  A
C623        C624   1.393       .  A
C623       Br630   1.923   1_554  S
C624        C625   1.405       .  A
C624        H629   1.084       .  S
C625        C626   1.411       .  A
C626       Br627   1.917       .  S
C631        C632   1.401       .  A
C631        C636   1.404       .  A
C631        H638   1.084       .  S
C632        C633   1.401       .  A
C633        C634   1.389       .  A
C633       Br640   1.922       .  S
C634        C635   1.410       .  A
C634        H639   1.083       .  S
C635        C636   1.418       .  A
C636       Br637   1.921       .  S
C641        C642   1.403   1_554  A
C641        C646   1.400       .  A
C641        H648   1.083   1_554  S
C642        C643   1.408   1_556  A
C643        C644   1.395       .  A
C643       Br650   1.915       .  S
C644        C645   1.400       .  A
C644        H649   1.083       .  S
C645        C646   1.410       .  A
C646       Br647   1.920       .  S
C651        C652   1.407       .  A
C651        C656   1.400   1_455  A
C651        H658   1.084       .  S
C652        C653   1.419       .  A
C653        C654   1.395   1_455  A
C653       Br660   1.922       .  S
C654        C655   1.396       .  A
C654        H659   1.084       .  S
C655        C656   1.407       .  A
C656       Br657   1.915       .  S
C661        C662   1.411       .  A
C661        C666   1.404       .  A
C661        H668   1.083       .  S
C662        C663   1.416       .  A
C663        C664   1.405       .  A
C663       Br670   1.921       .  S
C664        C665   1.408       .  A
C664        H669   1.085       .  S
C665        C666   1.405       .  A
C666       Br667   1.917       .  S
C671        C672   1.402       .  A
C671        C676   1.403       .  A
C671        H678   1.085       .  S
C672        C673   1.408       .  A
C673        C674   1.404       .  A
C673       Br680   1.917       .  S
C674        C675   1.408       .  A
C674        H679   1.084       .  S
C675        C676   1.417       .  A
C676       Br677   1.922       .  S
C681        C682   1.409       .  A
C681        C686   1.407       .  A
C681        H688   1.083       .  S
C682        C683   1.420       .  A
C683        C684   1.403       .  A
C683       Br690   1.922       .  S
C684        C685   1.402       .  A
C684        H689   1.084       .  S
C685        C686   1.407       .  A
C686       Br687   1.916       .  S
C691        C692   1.407       .  A
C691        C696   1.406       .  A
C691        H698   1.084       .  S
C692        C693   1.405       .  A
C693        C694   1.403       .  A
C693       Br700   1.918       .  S
C694        C695   1.411       .  A
C694        H699   1.083       .  S
C695        C696   1.415       .  A
C696       Br697   1.919       .  S
C701        C702   1.405       .  A
C701        C706   1.399       .  A
C701        H708   1.083       .  S
C702        C703   1.409       .  A
C703        C704   1.399       .  A
C703       Br710   1.920       .  S
C704        C705   1.408       .  A
C704        H709   1.083       .  S
C705        C706   1.416       .  A
C706       Br707   1.922       .  S
C711        C712   1.411       .  A
C711        C716   1.404       .  A
C711        H718   1.082       .  S
C712        C713   1.414       .  A
C713        C714   1.403       .  A
C713       Br720   1.921       .  S
C714        C715   1.407       .  A
C714        H719   1.084       .  S
C715        C716   1.405       .  A
C716       Br717   1.917       .  S
C721        C722   1.407       .  A
C721        C726   1.406       .  A
C721        H728   1.083       .  S
C722        C723   1.418       .  A
C723        C724   1.408       .  A
C723       Br730   1.921       .  S
C724        C725   1.407       .  A
C724        H729   1.083       .  S
C725        C726   1.414       .  A
C726       Br727   1.920       .  S
C731        C732   1.403       .  A
C731        C736   1.406       .  A
C731        H738   1.083       .  S
C732        C733   1.409       .  A
C733        C734   1.401       .  A
C733       Br740   1.920       .  S
C734        C735   1.407       .  A
C734        H739   1.083       .  S
C735        C736   1.418       .  A
C736       Br737   1.920       .  S
C741        C742   1.402       .  A
C741        C746   1.404       .  A
C741        H748   1.085       .  S
C742        C743   1.406       .  A
C743        C744   1.407       .  A
C743       Br750   1.918       .  S
C744        C745   1.411       .  A
C744        H749   1.084       .  S
C745        C746   1.418       .  A
C746       Br747   1.920       .  S
C751        C752   1.405       .  A
C751        C756   1.403       .  A
C751        H758   1.084       .  S
C752        C753   1.407       .  A
C753        C754   1.408       .  A
C753       Br760   1.917       .  S
C754        C755   1.413       .  A
C754        H759   1.084       .  S
C755        C756   1.416       .  A
C756       Br757   1.920       .  S
C761        C762   1.408       .  A
C761        C766   1.411       .  A
C761        H768   1.083       .  S
C762        C763   1.415       .  A
C763        C764   1.408       .  A
C763       Br770   1.920       .  S
C764        C765   1.409       .  A
C764        H769   1.083       .  S
C765        C766   1.418       .  A
C766       Br767   1.920       .  S
C771        C772   1.410       .  A
C771        C776   1.402       .  A
C771        H778   1.084       .  S
C772        C773   1.416       .  A
C773        C774   1.406       .  A
C773       Br780   1.918       .  S
C774        C775   1.403       .  A
C774        H779   1.084       .  S
C775        C776   1.408       .  A
C776       Br777   1.919       .  S
C781        C782   1.410       .  A
C781        C786   1.403       .  A
C781        H788   1.083       .  S
C782        C783   1.416       .  A
C783        C784   1.405       .  A
C783       Br790   1.920       .  S
C784        C785   1.405       .  A
C784        H789   1.084       .  S
C785        C786   1.406       .  A
C786       Br787   1.918       .  S
C791        C792   1.409       .  A
C791        C796   1.405       .  A
C791        H798   1.083       .  S
C792        C793   1.417       .  A
C793        C794   1.405       .  A
C793       Br800   1.919       .  S
C794        C795   1.402       .  A
C794        H799   1.083       .  S
C795        C796   1.408       .  A
C796       Br797   1.917       .  S
C801        C802   1.410       .  A
C801        C806   1.401       .  A
C801        H808   1.082       .  S
C802        C803   1.415       .  A
C803        C804   1.404       .  A
C803       Br810   1.918       .  S
C804        C805   1.404       .  A
C804        H809   1.083       .  S
C805        C806   1.405       .  A
C806       Br807   1.918       .  S
C811        C812   1.403       .  A
C811        C816   1.406       .  A
C811        H818   1.082       .  S
C812        C813   1.408       .  A
C813        C814   1.403       .  A
C813       Br820   1.919       .  S
C814        C815   1.407       .  A
C814        H819   1.082       .  S
C815        C816   1.417       .  A
C816       Br817   1.920       .  S
C821        C822   1.406       .  A
C821        C826   1.399       .  A
C821        H828   1.083       .  S
C822        C823   1.421       .  A
C823        C824   1.410       .  A
C823       Br830   1.920       .  S
C824        C825   1.404       .  A
C824        H829   1.083       .  S
C825        C826   1.409       .  A
C826       Br827   1.919       .  S
C831        C832   1.408       .  A
C831        C836   1.409       .  A
C831        H838   1.083       .  S
C832        C833   1.417       .  A
C833        C834   1.410       .  A
C833       Br840   1.919       .  S
C834        C835   1.408       .  A
C834        H839   1.083       .  S
C835        C836   1.418       .  A
C836       Br837   1.920       .  S
C841        C842   1.404       .  A
C841        C846   1.401       .  A
C841        H848   1.084       .  S
C842        C843   1.419       .  A
C843        C844   1.408       .  A
C843       Br850   1.920       .  S
C844        C845   1.403       .  A
C844        H849   1.084       .  S
C845        C846   1.410       .  A
C846       Br847   1.920       .  S
C851        C852   1.411       .  A
C851        C856   1.404       .  A
C851        H858   1.083       .  S
C852        C853   1.416       .  A
C853        C854   1.404       .  A
C853       Br860   1.921       .  S
C854        C855   1.405       .  A
C854        H859   1.083       .  S
C855        C856   1.405       .  A
C856       Br857   1.918       .  S
C861        C862   1.408       .  A
C861        C866   1.410       .  A
C861        H868   1.083       .  S
C862        C863   1.415       .  A
C863        C864   1.409       .  A
C863       Br870   1.920       .  S
C864        C865   1.409       .  A
C864        H869   1.083       .  S
C865        C866   1.416       .  A
C866       Br867   1.919       .  S
C871        C872   1.402       .  A
C871        C876   1.396       .  A
C871        H878   1.085       .  S
C872        C873   1.407       .  A
C873        C874   1.401       .  A
C873       Br880   1.918       .  S
C874        C875   1.408       .  A
C874        H879   1.084       .  S
C875        C876   1.418       .  A
C876       Br877   1.925       .  S
C881        C882   1.407       .  A
C881        C886   1.406       .  A
C881        H888   1.084       .  S
C882        C883   1.407       .  A
C883        C884   1.405       .  A
C883       Br890   1.917       .  S
C884        C885   1.411       .  A
C884        H889   1.083       .  S
C885        C886   1.416       .  A
C886       Br887   1.921       .  S
C891        C892   1.404       .  A
C891        C896   1.402       .  A
C891        H898   1.083       .  S
C892        C893   1.410       .  A
C893        C894   1.411       .  A
C893       Br900   1.916       .  S
C894        C895   1.410       .  A
C894        H899   1.082       .  S
C895        C896   1.418       .  A
C896       Br897   1.923       .  S
C901        C902   1.408       .  A
C901        C906   1.404       .  A
C901        H908   1.082       .  S
C902        C903   1.417       .  A
C903        C904   1.404       .  A
C903       Br910   1.920       .  S
C904        C905   1.403       .  A
C904        H909   1.083       .  S
C905        C906   1.409       .  A
C906       Br907   1.918       .  S
C911        C912   1.403       .  A
C911        C916   1.409       .  A
C911        H918   1.084       .  S
C912        C913   1.410       .  A
C913        C914   1.403       .  A
C913       Br920   1.919       .  S
C914        C915   1.406       .  A
C914        H919   1.084       .  S
C915        C916   1.422       .  A
C916       Br917   1.921       .  S
C921        C922   1.408       .  A
C921        C926   1.405       .  A
C921        H928   1.084       .  S
C922        C923   1.416       .  A
C923        C924   1.402       .  A
C923       Br930   1.921       .  S
C924        C925   1.402       .  A
C924        H929   1.085       .  S
C925        C926   1.409       .  A
C926       Br927   1.918       .  S
C931        C932   1.410       .  A
C931        C936   1.402       .  A
C931        H938   1.083       .  S
C932        C933   1.415       .  A
C933        C934   1.403       .  A
C933       Br940   1.920       .  S
C934        C935   1.404       .  A
C934        H939   1.084       .  S
C935        C936   1.406       .  A
C936       Br937   1.919       .  S
C941        C942   1.411       .  A
C941        C946   1.411       .  A
C941        H948   1.083       .  S
C942        C943   1.419       .  A
C943        C944   1.409       .  A
C943       Br950   1.921       .  S
C944        C945   1.407       .  A
C944        H949   1.082       .  S
C945        C946   1.416       .  A
C946       Br947   1.920       .  S
C951        C952   1.402       .  A
C951        C956   1.400       .  A
C951        H958   1.084       .  S
C952        C953   1.406       .  A
C953        C954   1.400       .  A
C953       Br960   1.920       .  S
C954        C955   1.411       .  A
C954        H959   1.083       .  S
C955        C956   1.422       .  A
C956       Br957   1.924       .  S
C961        C962   1.409       .  A
C961        C966   1.402       .  A
C961        H968   1.084       .  S
C962        C963   1.417       .  A
C963        C964   1.404       .  A
C963       Br970   1.920       .  S
C964        C965   1.403       .  A
C964        H969   1.084       .  S
C965        C966   1.406       .  A
C966       Br967   1.918       .  S
C971        C972   1.410       .  A
C971        C976   1.406       .  A
C971        H978   1.083       .  S
C972        C973   1.418       .  A
C973        C974   1.397       .  A
C973       Br980   1.923       .  S
C974        C975   1.400       .  A
C974        H979   1.085       .  S
C975        C976   1.408       .  A
C976       Br977   1.918       .  S
C981        C982   1.408       .  A
C981        C986   1.408       .  A
C981        H988   1.084       .  S
C982        C983   1.417       .  A
C983        C984   1.408       .  A
C983       Br990   1.921       .  S
C984        C985   1.408       .  A
C984        H989   1.084       .  S
C985        C986   1.418       .  A
C986       Br987   1.921       .  S
C991        C992   1.411       .  A
C991        C996   1.403       .  A
C991        H998   1.083       .  S
C992        C993   1.416       .  A
C993        C994   1.402       .  A
C993      Br1000   1.922       .  S
C994        C995   1.406       .  A
C994        H999   1.084       .  S
C995        C996   1.405       .  A
C996       Br997   1.917       .  S
C1001      C1002   1.405       .  A
C1001      C1006   1.398       .  A
C1001      H1008   1.083       .  S
C1002      C1003   1.418       .  A
C1003      C1004   1.407       .  A
C1003     Br1010   1.921       .  S
C1004      C1005   1.404       .  A
C1004      H1009   1.083       .  S
C1005      C1006   1.407       .  A
C1006     Br1007   1.920       .  S
C1011      C1012   1.406       .  A
C1011      C1016   1.411       .  A
C1011      H1018   1.083       .  S
C1012      C1013   1.410       .  A
C1013      C1014   1.403       .  A
C1013     Br1020   1.919       .  S
C1014      C1015   1.406       .  A
C1014      H1019   1.083       .  S
C1015      C1016   1.421       .  A
C1016     Br1017   1.922       .  S
C1021      C1022   1.404       .  A
C1021      C1026   1.411       .  A
C1021      H1028   1.084       .  S
C1022      C1023   1.409       .  A
C1023      C1024   1.405       .  A
C1023     Br1030   1.918       .  S
C1024      C1025   1.408       .  A
C1024      H1029   1.083       .  S
C1025      C1026   1.422       .  A
C1026     Br1027   1.920       .  S
C1031      C1032   1.409       .  A
C1031      C1036   1.404       .  A
C1031      H1038   1.083       .  S
C1032      C1033   1.418       .  A
C1033      C1034   1.405       .  A
C1033     Br1040   1.920       .  S
C1034      C1035   1.403       .  A
C1034      H1039   1.084       .  S
C1035      C1036   1.406       .  A
C1036     Br1037   1.917       .  S
C1041      C1042   1.408       .  A
C1041      C1046   1.411       .  A
C1041      H1048   1.084       .  S
C1042      C1043   1.416       .  A
C1043      C1044   1.410       .  A
C1043     Br1050   1.920       .  S
C1044      C1045   1.410       .  A
C1044      H1049   1.084       .  S
C1045      C1046   1.418       .  A
C1046     Br1047   1.920       .  S
C1051      C1052   1.400       .  A
C1051      C1056   1.395       .  A
C1051      H1058   1.084       .  S
C1052      C1053   1.415       .  A
C1053      C1054   1.403       .  A
C1053     Br1060   1.921       .  S
C1054      C1055   1.408       .  A
C1054      H1059   1.084       .  S
C1055      C1056   1.422       .  A
C1056     Br1057   1.925       .  S
C1061      C1062   1.405       .  A
C1061      C1066   1.402       .  A
C1061      H1068   1.084       .  S
C1062      C1063   1.403       .  A
C1063      C1064   1.400       .  A
C1063     Br1070   1.917       .  S
C1064      C1065   1.410       .  A
C1064      H1069   1.083       .  S
C1065      C1066   1.415       .  A
C1066     Br1067   1.920       .  S
C1071      C1072   1.401       .  A
C1071      C1076   1.403       .  A
C1071      H1078   1.084       .  S
C1072      C1073   1.408       .  A
C1073      C1074   1.404       .  A
C1073     Br1080   1.919       .  S
C1074      C1075   1.408       .  A
C1074      H1079   1.083       .  S
C1075      C1076   1.420       .  A
C1076     Br1077   1.921       .  S
C1081      C1082   1.405       .  A
C1081      C1086   1.409       .  A
C1081      H1088   1.084       .  S
C1082      C1083   1.407       .  A
C1083      C1084   1.400       .  A
C1083     Br1090   1.920       .  S
C1084      C1085   1.408       .  A
C1084      H1089   1.084       .  S
C1085      C1086   1.418       .  A
C1086     Br1087   1.920       .  S
C1091      C1092   1.409       .  A
C1091      C1096   1.409       .  A
C1091      H1098   1.083       .  S
C1092      C1093   1.418       .  A
C1093      C1094   1.408       .  A
C1093     Br1100   1.921       .  S
C1094      C1095   1.409       .  A
C1094      H1099   1.083       .  S
C1095      C1096   1.419       .  A
C1096     Br1097   1.921       .  S
C1101      C1102   1.410       .  A
C1101      C1106   1.403       .  A
C1101      H1108   1.083       .  S
C1102      C1103   1.417       .  A
C1103      C1104   1.403       .  A
C1103     Br1110   1.921       .  S
C1104      C1105   1.403       .  A
C1104      H1109   1.084       .  S
C1105      C1106   1.405       .  A
C1106     Br1107   1.918       .  S
C1111      C1112   1.401       .  A
C1111      C1116   1.406       .  A
C1111      H1118   1.084       .  S
C1112      C1113   1.410       .  A
C1113      C1114   1.400       .  A
C1113     Br1120   1.920       .  S
C1114      C1115   1.405       .  A
C1114      H1119   1.083       .  S
C1115      C1116   1.421       .  A
C1116     Br1117   1.920       .  S
C1121      C1122   1.406       .  A
C1121      C1126   1.400       .  A
C1121      H1128   1.083       .  S
C1122      C1123   1.421       .  A
C1123      C1124   1.403       .  A
C1123     Br1130   1.922       .  S
C1124      C1125   1.401       .  A
C1124      H1129   1.083       .  S
C1125      C1126   1.407       .  A
C1126     Br1127   1.918       .  S
C1131      C1132   1.406       .  A
C1131      C1136   1.407       .  A
C1131      H1138   1.082       .  S
C1132      C1133   1.418       .  A
C1133      C1134   1.405       .  A
C1133     Br1140   1.920       .  S
C1134      C1135   1.401       .  A
C1134      H1139   1.083       .  S
C1135      C1136   1.413       .  A
C1136     Br1137   1.918       .  S
C1141      C1142   1.401       .  A
C1141      C1146   1.393       .  A
C1141      H1148   1.084       .  S
C1142      C1143   1.409       .  A
C1143      C1144   1.401       .  A
C1143     Br1150   1.919       .  S
C1144      C1145   1.409       .  A
C1144      H1149   1.083       .  S
C1145      C1146   1.416       .  A
C1146     Br1147   1.924       .  S
C1151      C1152   1.408       .  A
C1151      C1156   1.403       .  A
C1151      H1158   1.084       .  S
C1152      C1153   1.416       .  A
C1153      C1154   1.407       .  A
C1153     Br1160   1.918       .  S
C1154      C1155   1.403       .  A
C1154      H1159   1.084       .  S
C1155      C1156   1.409       .  A
C1156     Br1157   1.919       .  S
C1161      C1162   1.407       .  A
C1161      C1166   1.405       .  A
C1161      H1168   1.082       .  S
C1162      C1163   1.421       .  A
C1163      C1164   1.406       .  A
C1163     Br1170   1.921       .  S
C1164      C1165   1.401       .  A
C1164      H1169   1.083       .  S
C1165      C1166   1.410       .  A
C1166     Br1167   1.919       .  S
C1171      C1172   1.408       .  A
C1171      C1176   1.408       .  A
C1171      H1178   1.083       .  S
C1172      C1173   1.417       .  A
C1173      C1174   1.407       .  A
C1173     Br1180   1.921       .  S
C1174      C1175   1.409       .  A
C1174      H1179   1.083       .  S
C1175      C1176   1.418       .  A
C1176     Br1177   1.921       .  S
C1181      C1182   1.406       .  A
C1181      C1186   1.404       .  A
C1181      H1188   1.083       .  S
C1182      C1183   1.419       .  A
C1183      C1184   1.403       .  A
C1183     Br1190   1.920       .  S
C1184      C1185   1.400       .  A
C1184      H1189   1.083       .  S
C1185      C1186   1.412       .  A
C1186     Br1187   1.919       .  S
C1191      C1192   1.406       .  A
C1191      C1196   1.401       .  A
C1191      H1198   1.083       .  S
C1192      C1193   1.416       .  A
C1193      C1194   1.406       .  A
C1193     Br1200   1.920       .  S
C1194      C1195   1.404       .  A
C1194      H1199   1.083       .  S
C1195      C1196   1.408       .  A
C1196     Br1197   1.918       .  S
C1201      C1202   1.410       .  A
C1201      C1206   1.410       .  A
C1201      H1208   1.083       .  S
C1202      C1203   1.420       .  A
C1203      C1204   1.410       .  A
C1203     Br1210   1.920       .  S
C1204      C1205   1.406       .  A
C1204      H1209   1.083       .  S
C1205      C1206   1.414       .  A
C1206     Br1207   1.920       .  S
C1211      C1212   1.408       .  A
C1211      C1216   1.404       .  A
C1211      H1218   1.083       .  S
C1212      C1213   1.421       .  A
C1213      C1214   1.404       .  A
C1213     Br1220   1.921       .  S
C1214      C1215   1.401       .  A
C1214      H1219   1.085       .  S
C1215      C1216   1.408       .  A
C1216     Br1217   1.920       .  S
C1221      C1222   1.403       .  A
C1221      C1226   1.404       .  A
C1221      H1228   1.084       .  S
C1222      C1223   1.407       .  A
C1223      C1224   1.402       .  A
C1223     Br1230   1.918       .  S
C1224      C1225   1.407       .  A
C1224      H1229   1.083       .  S
C1225      C1226   1.418       .  A
C1226     Br1227   1.921       .  S
C1231      C1232   1.411       .  A
C1231      C1236   1.396       .  A
C1231      H1238   1.083       .  S
C1232      C1233   1.421       .  A
C1233      C1234   1.399       .  A
C1233     Br1240   1.923       .  S
C1234      C1235   1.398       .  A
C1234      H1239   1.084       .  S
C1235      C1236   1.400       .  A
C1236     Br1237   1.919       .  S
C1241      C1242   1.411       .  A
C1241      C1246   1.405       .  A
C1241      H1248   1.083       .  S
C1242      C1243   1.416       .  A
C1243      C1244   1.403       .  A
C1243     Br1250   1.922       .  S
C1244      C1245   1.405       .  A
C1244      H1249   1.084       .  S
C1245      C1246   1.406       .  A
C1246     Br1247   1.917       .  S
C1251      C1252   1.402       .  A
C1251      C1256   1.399       .  A
C1251      H1258   1.083       .  S
C1252      C1253   1.419       .  A
C1253      C1254   1.408       .  A
C1253     Br1260   1.918       .  S
C1254      C1255   1.402       .  A
C1254      H1259   1.083       .  S
C1255      C1256   1.414       .  A
C1256     Br1257   1.921       .  S
C1261      C1262   1.403       .  A
C1261      C1266   1.408       .  A
C1261      H1268   1.084       .  S
C1262      C1263   1.410       .  A
C1263      C1264   1.400       .  A
C1263     Br1270   1.919       .  S
C1264      C1265   1.405       .  A
C1264      H1269   1.084       .  S
C1265      C1266   1.421       .  A
C1266     Br1267   1.921       .  S
C1271      C1272   1.409       .  A
C1271      C1276   1.410       .  A
C1271      H1278   1.083       .  S
C1272      C1273   1.419       .  A
C1273      C1274   1.409       .  A
C1273     Br1280   1.921       .  S
C1274      C1275   1.408       .  A
C1274      H1279   1.083       .  S
C1275      C1276   1.417       .  A
C1276     Br1277   1.919       .  S
C1281      C1282   1.400       .  A
C1281      C1286   1.402       .  A
C1281      H1288   1.083       .  S
C1282      C1283   1.409       .  A
C1283      C1284   1.406       .  A
C1283     Br1290   1.918       .  S
C1284      C1285   1.409       .  A
C1284      H1289   1.083       .  S
C1285      C1286   1.419       .  A
C1286     Br1287   1.921       .  S
C1291      C1292   1.406       .  A
C1291      C1296   1.399       .  A
C1291      H1298   1.083       .  S
C1292      C1293   1.421       .  A
C1293      C1294   1.408       .  A
C1293     Br1300   1.920       .  S
C1294      C1295   1.402       .  A
C1294      H1299   1.084       .  S
C1295      C1296   1.409       .  A
C1296     Br1297   1.920       .  S
C1301      C1302   1.411       .  A
C1301      C1306   1.404       .  A
C1301      H1308   1.083       .  S
C1302      C1303   1.414       .  A
C1303      C1304   1.404       .  A
C1303     Br1310   1.920       .  S
C1304      C1305   1.407       .  A
C1304      H1309   1.084       .  S
C1305      C1306   1.405       .  A
C1306     Br1307   1.917       .  S
C1311      C1312   1.407       .  A
C1311      C1316   1.407       .  A
C1311      H1318   1.083       .  S
C1312      C1313   1.418       .  A
C1313      C1314   1.410       .  A
C1313     Br1320   1.921       .  S
C1314      C1315   1.409       .  A
C1314      H1319   1.082       .  S
C1315      C1316   1.418       .  A
C1316     Br1317   1.921       .  S
C1321      C1322   1.410       .  A
C1321      C1326   1.399       .  A
C1321      H1328   1.082       .  S
C1322      C1323   1.418       .  A
C1323      C1324   1.400       .  A
C1323     Br1330   1.921       .  S
C1324      C1325   1.405       .  A
C1324      H1329   1.082       .  S
C1325      C1326   1.412       .  A
C1326     Br1327   1.922       .  S
C1331      C1332   1.406       .  A
C1331      C1336   1.399       .  A
C1331      H1338   1.082       .  S
C1332      C1333   1.418       .  A
C1333      C1334   1.400       .  A
C1333     Br1340   1.921       .  S
C1334      C1335   1.403       .  A
C1334      H1339   1.083       .  S
C1335      C1336   1.415       .  A
C1336     Br1337   1.923       .  S
C1341      C1342   1.406       .  A
C1341      C1346   1.399       .  A
C1341      H1348   1.082       .  S
C1342      C1343   1.419       .  A
C1343      C1344   1.398       .  A
C1343     Br1350   1.922       .  S
C1344      C1345   1.402       .  A
C1344      H1349   1.083       .  S
C1345      C1346   1.414       .  A
C1346     Br1347   1.922       .  S
C1351      C1352   1.403       .  A
C1351      C1356   1.396       .  A
C1351      H1358   1.083       .  S
C1352      C1353   1.413       .  A
C1353      C1354   1.397   1_565  A
C1353     Br1360   1.920       .  S
C1354      C1355   1.400       .  A
C1354      H1359   1.084       .  S
C1355      C1356   1.408   1_545  A
C1356     Br1357   1.921       .  S
C1361      C1362   1.403       .  A
C1361      C1366   1.406       .  A
C1361      H1368   1.084       .  S
C1362      C1363   1.406       .  A
C1363      C1364   1.393       .  A
C1363     Br1370   1.922   1_554  S
C1364      C1365   1.406       .  A
C1364      H1369   1.084       .  S
C1365      C1366   1.415       .  A
C1366     Br1367   1.918       .  S
C1371      C1372   1.408       .  A
C1371      C1376   1.396       .  A
C1371      H1378   1.083       .  S
C1372      C1373   1.420       .  A
C1373      C1374   1.399       .  A
C1373     Br1380   1.924       .  S
C1374      C1375   1.403       .  A
C1374      H1379   1.083       .  S
C1375      C1376   1.409       .  A
C1376     Br1377   1.921       .  S
C1381      C1382   1.407       .  A
C1381      C1386   1.399       .  A
C1381      H1388   1.080       .  S
C1382      C1383   1.416       .  A
C1383      C1384   1.398       .  A
C1383     Br1390   1.922       .  S
C1384      C1385   1.404       .  A
C1384      H1389   1.083       .  S
C1385      C1386   1.407       .  A
C1386     Br1387   1.919       .  S
C1391      C1392   1.410       .  A
C1391      C1396   1.397       .  A
C1391      H1398   1.068       .  S
C1392      C1393   1.416       .  A
C1393      C1394   1.399       .  A
C1393     Br1400   1.918       .  S
C1394      C1395   1.401       .  A
C1394      H1399   1.069       .  S
C1395      C1396   1.404       .  A
C1396     Br1397   1.919       .  S
C1401      C1402   1.401       .  A
C1401      C1406   1.394   1_545  A
C1401      H1408   1.084       .  S
C1402      C1403   1.409       .  A
C1403      C1404   1.401   1_545  A
C1403     Br1410   1.919       .  S
C1404      C1405   1.405       .  A
C1404      H1409   1.084       .  S
C1405      C1406   1.412       .  A
C1406     Br1407   1.923       .  S
C1411      C1412   1.404       .  A
C1411      C1416   1.399       .  A
C1411      H1418   1.083       .  S
C1412      C1413   1.414       .  A
C1413      C1414   1.398       .  A
C1413     Br1420   1.915       .  S
C1414      C1415   1.401       .  A
C1414      H1419   1.083       .  S
C1415      C1416   1.415       .  A
C1416     Br1417   1.920       .  S
C1421      C1422   1.403   1_554  A
C1421      C1426   1.396       .  A
C1421      H1428   1.084   1_554  S
C1422      C1423   1.406   1_556  A
C1423      C1424   1.396       .  A
C1423     Br1430   1.915   1_554  S
C1424      C1425   1.402       .  A
C1424      H1429   1.084       .  S
C1425      C1426   1.407       .  A
C1426     Br1427   1.920       .  S
C1431      C1432   1.404       .  A
C1431      C1436   1.403       .  A
C1431      H1438   1.084       .  S
C1432      C1433   1.412       .  A
C1433      C1434   1.394       .  A
C1433     Br1440   1.924       .  S
C1434      C1435   1.403       .  A
C1434      H1439   1.084       .  S
C1435      C1436   1.410       .  A
C1436     Br1437   1.917       .  S
C1441      C1442   1.408       .  A
C1441      C1446   1.395       .  A
C1441      H1448   1.082       .  S
C1442      C1443   1.419       .  A
C1443      C1444   1.397       .  A
C1443     Br1450   1.924       .  S
C1444      C1445   1.402       .  A
C1444      H1449   1.083       .  S
C1445      C1446   1.412       .  A
C1446     Br1447   1.924       .  S
C1451      C1452   1.408       .  A
C1451      C1456   1.400       .  A
C1451      H1458   1.082       .  S
C1452      C1453   1.420       .  A
C1453      C1454   1.398       .  A
C1453     Br1460   1.924       .  S
C1454      C1455   1.403       .  A
C1454      H1459   1.083       .  S
C1455      C1456   1.413       .  A
C1456     Br1457   1.921       .  S
C1461      C1462   1.410       .  A
C1461      C1466   1.394       .  A
C1461      H1468   1.082       .  S
C1462      C1463   1.418       .  A
C1463      C1464   1.402       .  A
C1463     Br1470   1.922       .  S
C1464      C1465   1.406       .  A
C1464      H1469   1.084       .  S
C1465      C1466   1.405       .  A
C1466     Br1467   1.921       .  S
C1471      C1472   1.410       .  A
C1471      C1476   1.396       .  A
C1471      H1478   1.083       .  S
C1472      C1473   1.419       .  A
C1473      C1474   1.399       .  A
C1473     Br1480   1.923       .  S
C1474      C1475   1.402       .  A
C1474      H1479   1.084       .  S
C1475      C1476   1.407       .  A
C1476     Br1477   1.921       .  S
C1481      C1482   1.401       .  A
C1481      C1486   1.397       .  A
C1481      H1488   1.085       .  S
C1482      C1483   1.408       .  A
C1483      C1484   1.399       .  A
C1483     Br1490   1.919       .  S
C1484      C1485   1.405       .  A
C1484      H1489   1.084       .  S
C1485      C1486   1.414       .  A
C1486     Br1487   1.921       .  S
C1491      C1492   1.406       .  A
C1491      C1496   1.391       .  A
C1491      H1498   1.084       .  S
C1492      C1493   1.415       .  A
C1493      C1494   1.405       .  A
C1493     Br1500   1.919       .  S
C1494      C1495   1.404       .  A
C1494      H1499   1.084       .  S
C1495      C1496   1.405       .  A
C1496     Br1497   1.922       .  S
C1501      C1502   1.408       .  A
C1501      C1506   1.402       .  A
C1501      H1508   1.083       .  S
C1502      C1503   1.414       .  A
C1503      C1504   1.395       .  A
C1503     Br1510   1.924       .  S
C1504      C1505   1.404       .  A
C1504      H1509   1.084       .  S
C1505      C1506   1.410       .  A
C1506     Br1507   1.919       .  S
C1511      C1512   1.404       .  A
C1511      C1516   1.394       .  A
C1511      H1518   1.083       .  S
C1512      C1513   1.410       .  A
C1513      C1514   1.399       .  A
C1513     Br1520   1.919       .  S
C1514      C1515   1.404       .  A
C1514      H1519   1.083       .  S
C1515      C1516   1.407       .  A
C1516     Br1517   1.920       .  S
C1521      C1522   1.405       .  A
C1521      C1526   1.398       .  A
C1521      H1528   1.084       .  S
C1522      C1523   1.408       .  A
C1523      C1524   1.401       .  A
C1523     Br1530   1.919       .  S
C1524      C1525   1.405       .  A
C1524      H1529   1.083       .  S
C1525      C1526   1.409       .  A
C1526     Br1527   1.920       .  S
C1531      C1532   1.403       .  A
C1531      C1536   1.394       .  A
C1531      H1538   1.083       .  S
C1532      C1533   1.416       .  A
C1533      C1534   1.401       .  A
C1533     Br1540   1.921       .  S
C1534      C1535   1.402       .  A
C1534      H1539   1.084       .  S
C1535      C1536   1.410       .  A
C1536     Br1537   1.917       .  S
C1541      C1542   1.408       .  A
C1541      C1546   1.394       .  A
C1541      H1548   1.084       .  S
C1542      C1543   1.418       .  A
C1543      C1544   1.403       .  A
C1543     Br1550   1.921       .  S
C1544      C1545   1.401       .  A
C1544      H1549   1.084       .  S
C1545      C1546   1.403       .  A
C1546     Br1547   1.920       .  S
C1551      C1552   1.402       .  A
C1551      C1556   1.397       .  A
C1551      H1558   1.085       .  S
C1552      C1553   1.408       .  A
C1553      C1554   1.395       .  A
C1553     Br1560   1.920       .  S
C1554      C1555   1.402       .  A
C1554      H1559   1.084       .  S
C1555      C1556   1.411       .  A
C1556     Br1557   1.920       .  S
C1561      C1562   1.407       .  A
C1561      C1566   1.399       .  A
C1561      H1568   1.084       .  S
C1562      C1563   1.416       .  A
C1563      C1564   1.396       .  A
C1563     Br1570   1.924       .  S
C1564      C1565   1.403       .  A
C1564      H1569   1.084       .  S
C1565      C1566   1.410       .  A
C1566     Br1567   1.921       .  S
C1571      C1572   1.409       .  A
C1571      C1576   1.389       .  A
C1571      H1578   1.082       .  S
C1572      C1573   1.420       .  A
C1573      C1574   1.408       .  A
C1573     Br1580   1.920       .  S
C1574      C1575   1.402       .  A
C1574      H1579   1.083       .  S
C1575      C1576   1.402       .  A
C1576     Br1577   1.921       .  S
C1581      C1582   1.409       .  A
C1581      C1586   1.395   1_655  A
C1581      H1588   1.083       .  S
C1582      C1583   1.418       .  A
C1583      C1584   1.399   1_655  A
C1583     Br1590   1.922       .  S
C1584      C1585   1.399       .  A
C1584      H1589   1.083       .  S
C1585      C1586   1.402       .  A
C1586     Br1587   1.919       .  S
C1591      C1592   1.406       .  A
C1591      C1596   1.392       .  A
C1591      H1598   1.082       .  S
C1592      C1593   1.417       .  A
C1593      C1594   1.403       .  A
C1593     Br1600   1.920       .  S
C1594      C1595   1.401       .  A
C1594      H1599   1.083       .  S
C1595      C1596   1.407       .  A
C1596     Br1597   1.923       .  S
C1601      C1602   1.402       .  A
C1601      C1606   1.401   1_565  A
C1601      H1608   1.085       .  S
C1602      C1603   1.407       .  A
C1603      C1604   1.395   1_565  A
C1603     Br1610   1.919       .  S
C1604      C1605   1.401       .  A
C1604      H1609   1.085       .  S
C1605      C1606   1.411       .  A
C1606     Br1607   1.919       .  S
C1611      C1612   1.403       .  A
C1611      C1616   1.395       .  A
C1611      H1618   1.083       .  S
C1612      C1613   1.415       .  A
C1613      C1614   1.401       .  A
C1613     Br1620   1.920       .  S
C1614      C1615   1.400       .  A
C1614      H1619   1.084       .  S
C1615      C1616   1.409       .  A
C1616     Br1617   1.922       .  S
C1621      C1622   1.408       .  A
C1621      C1626   1.402       .  A
C1621      H1628   1.083       .  S
C1622      C1623   1.416       .  A
C1623      C1624   1.398       .  A
C1623     Br1630   1.921       .  S
C1624      C1625   1.400       .  A
C1624      H1629   1.084       .  S
C1625      C1626   1.409       .  A
C1626     Br1627   1.920       .  S
C1631      C1632   1.408       .  A
C1631      C1636   1.394       .  A
C1631      H1638   1.083       .  S
C1632      C1633   1.419       .  A
C1633      C1634   1.403       .  A
C1633     Br1640   1.921       .  S
C1634      C1635   1.401       .  A
C1634      H1639   1.084       .  S
C1635      C1636   1.407       .  A
C1636     Br1637   1.922       .  S
C1641      C1642   1.404       .  A
C1641      C1646   1.395       .  A
C1641      H1648   1.084       .  S
C1642      C1643   1.412       .  A
C1643      C1644   1.401       .  A
C1643     Br1650   1.919       .  S
C1644      C1645   1.404       .  A
C1644      H1649   1.084       .  S
C1645      C1646   1.411       .  A
C1646     Br1647   1.923       .  S
C1651      C1652   1.409       .  A
C1651      C1656   1.399       .  A
C1651      H1658   1.083       .  S
C1652      C1653   1.419       .  A
C1653      C1654   1.402       .  A
C1653     Br1660   1.923       .  S
C1654      C1655   1.406       .  A
C1654      H1659   1.084       .  S
C1655      C1656   1.413       .  A
C1656     Br1657   1.922       .  S
C1661      C1662   1.400       .  A
C1661      C1666   1.397       .  A
C1661      H1668   1.084       .  S
C1662      C1663   1.408       .  A
C1663      C1664   1.400   1_565  A
C1663     Br1670   1.917       .  S
C1664      C1665   1.403       .  A
C1664      H1669   1.083       .  S
C1665      C1666   1.413   1_545  A
C1666     Br1667   1.922       .  S
C1671      C1672   1.399       .  A
C1671      C1676   1.398       .  A
C1671      H1678   1.082       .  S
C1672      C1673   1.407       .  A
C1673      C1674   1.400   1_655  A
C1673     Br1680   1.918       .  S
C1674      C1675   1.407       .  A
C1674      H1679   1.082       .  S
C1675      C1676   1.414   1_455  A
C1676     Br1677   1.920       .  S
