geometry optimzed in LAMMPS
_audit_creation_date              2020-11-30 
_audit_creation_method            'lammps2cif' 
_symmetry_space_group_name_H-M    'P1' 
_symmetry_Int_Tables_number       1 
_symmetry_cell_setting            triclinic 
loop_ 
_symmetry_equiv_pos_as_xyz 
  x,y,z 
_cell_length_a                    23.513001447585633 
_cell_length_b                    23.656965347025533 
_cell_length_c                    26.396561777539056 
_cell_angle_alpha                 85.75702868752398 
_cell_angle_beta                  86.01944389586178 
_cell_angle_gamma                 83.13471855793753 
loop_ 
_atom_site_label 
_atom_site_type_symbol 
_atom_site_fract_x 
_atom_site_fract_y 
_atom_site_fract_z 
_atom_site_charge 
Zr1        Zr  0.51091351  0.10628063  0.51683831     2.17510
O2          O  0.47261808  0.20322163  0.48967917    -0.51510
O3          O  0.57504704  0.12940989  0.57793378    -0.74720
O4          O  0.44871059  0.14731244  0.58659003    -0.81500
O5          O  0.62560194  0.08619241  0.40924951    -0.83250
O6          O  0.39542847  0.07798489  0.62072366    -0.78870
O7          O  0.57862434  0.15445941  0.45828973    -0.90510
O8          O  0.62215394  0.04661024  0.61074820    -0.76470
O9          O  0.50500496  0.03466775  0.58458303    -0.85960
O10         O  0.59269340  0.03734045  0.50656670    -0.85650
O11         O  0.42182291  0.06800142  0.50872252    -0.72410
O12         O  0.50333280  0.06907297  0.43551622    -0.84540
Zr13       Zr  0.49165237  0.88733409  0.48672522     2.26420
Zr14       Zr  0.41861562  0.99422959  0.57553229     2.06270
Zr15       Zr  0.58429281  0.99849450  0.42716604     2.10050
Zr16       Zr  0.58671021  0.96661633  0.57437229     1.78760
O17         O  0.57962086  0.02311284  0.33622825    -0.93340
O18         O  0.57142129  0.95002872  0.66623501    -0.41150
O19         O  0.58056631  0.92591673  0.49464498    -0.77790
O20         O  0.49984784  0.92400881  0.56806266    -0.96470
O21         O  0.41005898  0.95598554  0.49628800    -0.89780
O22         O  0.49754207  0.95872255  0.41856012    -0.92620
C23         C  0.61117044  0.10124952  0.60723926     1.01130
C24         C  0.61686013  0.13705489  0.42371344     1.14060
C25         C  0.41061785  0.12809177  0.61860277     1.04840
O26         O  0.41670111  0.96489080  0.66597998    -0.94770
O27         O  0.37487245  0.90808657  0.59178845    -0.90520
O28         O  0.42332002  0.83953547  0.54403425    -0.83660
C29         C  0.38439828  0.85714698  0.57778215     1.11480
O30         O  0.37470856  0.12244717  0.39907894    -0.96750
Zr31       Zr  0.41610960  0.02732640  0.42885644     1.88940
O32         O  0.42374412  0.86464189  0.42850802    -0.73400
O33         O  0.31485880  0.01693328  0.57473590    -0.52660
O34         O  0.31335531  0.03995396  0.45154853    -0.97340
O35         O  0.42950273  0.04624781  0.33694896    -0.54550
O36         O  0.38015748  0.94740017  0.39297391    -0.73910
C37         C  0.38824922  0.89260834  0.39844886     0.98430
O38         O  0.53220298  0.79104489  0.51408643    -0.62730
O39         O  0.68823395  0.97505909  0.42181494    -0.57540
O40         O  0.55407538  0.84320477  0.41974171    -0.94220
O41         O  0.61258635  0.90970209  0.38937253    -0.92640
O42         O  0.68966457  0.95148797  0.55343910    -0.93000
O43         O  0.62887623  0.87264076  0.60580622    -0.91780
C44         C  0.59572961  0.86013876  0.39079867     1.17270
H45         H  0.62810507  0.05420090  0.50684301     0.33220
H46         H  0.49721326  0.89406143  0.59477764     0.44070
H47         H  0.49814261  0.94254092  0.38596930     0.37600
H48         H  0.39010124  0.09745292  0.51347629     0.34080
H49         H  0.60978833  0.95010206  0.67950245     0.25860
H50         H  0.30134021  0.01780813  0.61106614     0.31800
H51         H  0.29519059  0.02945617  0.42137213     0.37710
H52         H  0.70739044  0.95959839  0.58467157     0.32170
H53         H  0.70119179  0.99173192  0.38807695     0.31050
H54         H  0.61944380  0.01389978  0.32196774     0.32730
H55         H  0.39377093  0.03710693  0.32324529     0.31700
H56         H  0.61270540  0.84575140  0.58528046     0.35690
H57         H  0.57421930  0.79090833  0.50771149     0.28430
H58         H  0.48283865  0.22725734  0.51606408     0.32660
H59         H  0.34268566  0.11655845  0.37830830     0.35510
H60         H  0.70242942  0.99870611  0.44656151     0.28120
H61         H  0.52650630  0.78881930  0.55167108     0.40990
H62         H  0.44271687  0.98854970  0.68046649     0.31050
H63         H  0.54941696  0.98570217  0.67751814     0.38660
H64         H  0.45923257  0.01590346  0.32544094     0.30520
H65         H  0.30849052  0.05707867  0.56098097     0.30580
H66         H  0.43040969  0.20379745  0.49442165     0.30840
Zr67       Zr  0.88855950  0.48533294  0.48655966     2.17510
O68         O  0.79098577  0.52140969  0.51470984    -0.51510
O69         O  0.86768303  0.41867925  0.42685018    -0.74720
O70         O  0.84459737  0.54556824  0.41585732    -0.81500
O71         O  0.91224794  0.37684882  0.59721820    -0.83250
O72         O  0.91657944  0.59417798  0.38134175    -0.78870
O73         O  0.84348456  0.41387924  0.54384061    -0.90510
O74         O  0.95142601  0.37522503  0.39292925    -0.76470
O75         O  0.96109673  0.49037737  0.41924973    -0.85960
O76         O  0.96008931  0.40634843  0.50035941    -0.85650
O77         O  0.92571680  0.57535022  0.49200192    -0.72410
O78         O  0.92574835  0.49779841  0.56740949    -0.84540
Zr79       Zr  0.10835446  0.51075315  0.51696807     2.26420
Zr80       Zr  0.00070409  0.57738518  0.42617479     2.06270
Zr81       Zr  0.99884173  0.41942106  0.57927389     2.10050
Zr82       Zr  0.03068712  0.41058330  0.43228478     1.78760
O83         O  0.96852440  0.41494102  0.66946307    -0.93340
O84         O  0.05193386  0.42460600  0.34088033    -0.41150
O85         O  0.07167609  0.42080634  0.51180265    -0.77790
O86         O  0.07234480  0.49805259  0.43615174    -0.96470
O87         O  0.03833941  0.59075113  0.50464919    -0.89780
O88         O  0.03610280  0.50747888  0.58453712    -0.92620
C89         C  0.89620902  0.38401387  0.39669909     1.01130
C90         C  0.86234105  0.37898764  0.58049112     1.14060
C91         C  0.86567938  0.58097824  0.38218744     1.04840
O92         O  0.03055424  0.57776669  0.33592586    -0.94770
O93         O  0.08610584  0.62245717  0.40742595    -0.90520
O94         O  0.15530184  0.57765111  0.45724956    -0.83660
C95         C  0.13730404  0.61443893  0.42182331     1.11480
O96         O  0.87096716  0.63130211  0.59864787    -0.96750
Zr97       Zr  0.96573322  0.58621993  0.57130319     1.88940
O98         O  0.12902179  0.57982968  0.57420567    -0.73400
O99         O  0.97293700  0.68019961  0.42161133    -0.52660
O100        O  0.95436339  0.68750772  0.54441713    -0.97340
O101        O  0.94303171  0.57321756  0.66270671    -0.54550
O102        O  0.04511228  0.62222594  0.60897702    -0.73910
C103        C  0.10024186  0.61446126  0.60427070     0.98430
O104        O  0.20653412  0.47219201  0.49258865    -0.62730
O105        O  0.03485458  0.31853036  0.57897379    -0.57540
O106        O  0.15118841  0.45157845  0.58708218    -0.94220
O107        O  0.08133060  0.40474789  0.62965307    -0.92640
O108        O  0.04306650  0.30833491  0.45474537    -0.93000
O109        O  0.12579984  0.36609286  0.40573192    -0.91780
C110        C  0.13234929  0.41883241  0.62397307     1.17270
H111        H  0.94436309  0.37038364  0.50110662     0.33220
H112        H  0.10245891  0.50031342  0.40949767     0.44070
H113        H  0.05140519  0.50955810  0.61725481     0.37600
H114        H  0.89574232  0.60626697  0.48585738     0.34080
H115        H  0.05249030  0.38628123  0.32796158     0.25860
H116        H  0.97510958  0.69182398  0.38477328     0.31800
H117        H  0.96640438  0.70676139  0.57328582     0.37710
H118        H  0.03644826  0.29054773  0.42319106     0.32170
H119        H  0.02997811  0.30376215  0.61490127     0.31050
H120        H  0.97926467  0.37473492  0.68167060     0.32730
H121        H  0.95833678  0.60510683  0.67755275     0.31700
H122        H  0.15253268  0.38771701  0.42171131     0.35690
H123        H  0.20812036  0.43062589  0.50134908     0.28430
H124        H  0.76655582  0.51015367  0.48895304     0.32660
H125        H  0.87792162  0.66217120  0.62003001     0.35510
H126        H  0.00626256  0.30112422  0.56122245     0.28120
H127        H  0.20907472  0.47533243  0.45490076     0.40990
H128        H  0.00605059  0.55253537  0.32149566     0.31050
H129        H  0.01675759  0.44642899  0.32786133     0.38660
H130        H  0.96820761  0.53879398  0.67424738     0.30520
H131        H  0.93143761  0.68534455  0.43183974     0.30580
H132        H  0.78932595  0.56342121  0.50920190     0.30840
Zr133      Zr  0.51442903  0.51468534  0.09892730     2.17510
O134        O  0.48112992  0.48482640  0.18519543    -0.51510
O135        O  0.57729987  0.58123112  0.12248533    -0.74720
O136        O  0.58702510  0.44606281  0.14028410    -0.81500
O137        O  0.38261605  0.62409024  0.08189901    -0.83250
O138        O  0.62704158  0.38510156  0.08139770    -0.78870
O139        O  0.44314785  0.58252446  0.14116573    -0.90510
O140        O  0.61271421  0.62952725  0.05181474    -0.76470
O141        O  0.59476093  0.50396880  0.03907191    -0.85960
O142        O  0.50382248  0.59515592  0.03915503    -0.85650
O143        O  0.50813878  0.42587719  0.06190379    -0.72410
O144        O  0.42503984  0.51078092  0.06090644    -0.84540
Zr145      Zr  0.49148665  0.49369462  0.90160603     2.26420
Zr146      Zr  0.58803445  0.41678827  0.00054005     2.06270
Zr147      Zr  0.41646459  0.59074259  0.99988163     2.10050
Zr148      Zr  0.58391998  0.58453272  0.97943106     1.78760
O149        O  0.31241924  0.59363736  0.00878659    -0.93340
O150        O  0.68822685  0.56538866  0.97630896    -0.41150
O151        O  0.49633205  0.58242804  0.93871450    -0.77790
O152        O  0.58083068  0.49709108  0.93959237    -0.96470
O153        O  0.50062597  0.41301513  0.96104777    -0.89780
O154        O  0.41089666  0.50407025  0.96127186    -0.92620
C155        C  0.60690480  0.61905238  0.10010121     1.01130
C156        C  0.39911330  0.61647584  0.12738328     1.14060
C157        C  0.62115161  0.40232474  0.12651457     1.04840
O158        O  0.69160427  0.41383838  0.98501966    -0.94770
O159        O  0.61371402  0.37382394  0.92060564    -0.90520
O160        O  0.55917174  0.42255192  0.85994644    -0.83660
C161        C  0.59859068  0.38359910  0.87477728     1.11480
O162        O  0.38492361  0.38528662  0.10365433    -0.96750
Zr163      Zr  0.42064905  0.42381946  0.02082878     1.88940
O164        O  0.42686294  0.43049794  0.87594390    -0.73400
O165        O  0.58869233  0.31358557  0.01317199    -0.52660
O166        O  0.44524621  0.32063735  0.02814468    -0.97340
O167        O  0.31671336  0.44287359  0.03498315    -0.54550
O168        O  0.38261363  0.39054692  0.94641611    -0.73910
C169        C  0.39125094  0.39809019  0.89794953     0.98430
O170        O  0.52718141  0.52939733  0.81768508    -0.62730
O171        O  0.41501828  0.69414010  0.98921219    -0.57540
O172        O  0.41886182  0.56026372  0.85992249    -0.94220
O173        O  0.38060937  0.62305659  0.91799207    -0.92640
O174        O  0.56100617  0.68639619  0.95882499    -0.93000
O175        O  0.62839332  0.61466354  0.89735092    -0.91780
C176        C  0.38558686  0.60453273  0.87332723     1.17270
H177        H  0.50183925  0.63054153  0.05557576     0.33220
H178        H  0.61224105  0.49285730  0.91404564     0.44070
H179        H  0.37531199  0.50607556  0.94466800     0.37600
H180        H  0.51156802  0.39479854  0.08779087     0.34080
H181        H  0.70181797  0.60339475  0.97660995     0.25860
H182        H  0.62929114  0.29877341  0.01799590     0.31800
H183        H  0.41097491  0.30485059  0.01782415     0.37710
H184        H  0.59591473  0.70340418  0.96581280     0.32170
H185        H  0.37394568  0.70907755  0.99371246     0.31050
H186        H  0.29796407  0.63462387  0.00408413     0.32730
H187        H  0.30169134  0.40785354  0.02585251     0.31700
H188        H  0.60117248  0.60731018  0.87228331     0.35690
H189        H  0.51896324  0.57144456  0.81756570     0.28430
H190        H  0.51116591  0.49297168  0.20724420     0.32660
H191        H  0.36172074  0.35483200  0.09651557     0.35510
H192        H  0.43229510  0.70511779  0.01965674     0.28120
H193        H  0.56952794  0.52242276  0.81806831     0.40990
H194        H  0.70392429  0.43550480  0.01219911     0.31050
H195        H  0.69709597  0.54652359  0.01004185     0.38660
H196        H  0.30452382  0.47201613  0.00783244     0.30520
H197        H  0.56862357  0.30688322  0.04692573     0.30580
H198        H  0.48386171  0.44266893  0.18612713     0.30840
Zr199      Zr  0.02067165  0.02206862  0.89437257     2.17510
O200        O  0.01143950  0.00292564  0.80590062    -0.51510
O201        O  0.08658378  0.09154973  0.86278950    -0.74720
O202        O  0.94326532  0.08536803  0.85368625    -0.81500
O203        O  0.11596711  0.87844735  0.91394065    -0.83250
O204        O  0.88522492  0.12991404  0.91495949    -0.78870
O205        O  0.08266966  0.94497829  0.85294487    -0.90510
O206        O  0.12925363  0.11834922  0.93038002    -0.76470
O207        O  0.00761641  0.09710519  0.95119125    -0.85960
O208        O  0.09727079  0.00434208  0.95036053    -0.85650
O209        O  0.92843252  0.01442720  0.93890107    -0.72410
O210        O  0.01167257  0.93054068  0.93851920    -0.84540
Zr211      Zr  0.98150318  0.98192136  0.09831288     2.26420
Zr212      Zr  0.91673687  0.08929354  0.99677003     2.06270
Zr213      Zr  0.08687320  0.91461632  0.99611664     2.10050
Zr214      Zr  0.08341926  0.07838345  0.00751112     1.78760
O215        O  0.08712968  0.81137045  0.00408356    -0.93340
O216        O  0.06525056  0.18132653  0.01356296    -0.41150
O217        O  0.07361987  0.98887316  0.05374366    -0.77790
O218        O  0.99277464  0.07315043  0.05378286    -0.96470
O219        O  0.90611084  0.99894739  0.04123123    -0.89780
O220        O  0.99629655  0.90700904  0.04131141    -0.92620
C221        C  0.12253267  0.11914252  0.88256359     1.01130
C222        C  0.11083901  0.89696696  0.86741922     1.14060
C223        C  0.89989626  0.12020037  0.86843976     1.04840
O224        O  0.91361576  0.19261587  0.99617813    -0.94770
O225        O  0.88154199  0.12179147  0.07964069    -0.90520
O226        O  0.91120214  0.05279119  0.14000360    -0.83660
C227        C  0.88383549  0.10142208  0.12603571     1.11480
O228        O  0.88507778  0.89945880  0.90535276    -0.96750
Zr229      Zr  0.92112051  0.92426571  0.98432130     1.88940
O230        O  0.91191459  0.91510253  0.12889308    -0.73400
O231        O  0.81290561  0.08960167  0.00061420    -0.52660
O232        O  0.81761581  0.95006107  0.98416180    -0.97340
O233        O  0.94167270  0.82287006  0.97045462    -0.54550
O234        O  0.88243094  0.87626877  0.06026971    -0.73910
C235        C  0.88299199  0.88083923  0.10819447     0.98430
O236        O  0.00693617  0.00876051  0.18114064    -0.62730
O237        O  0.19132320  0.90928948  0.99002065    -0.57540
O238        O  0.05420243  0.91273020  0.13951953    -0.94220
O239        O  0.12245456  0.88356158  0.07862424    -0.92640
O240        O  0.18514773  0.04933387  0.01749757    -0.93000
O241        O  0.11623719  0.11079509  0.08474084    -0.91780
C242        C  0.10316817  0.88605792  0.12515957     1.17270
H243        H  0.13411403  0.00348639  0.93164384     0.33220
H244        H  0.98919984  0.10245557  0.07776531     0.44070
H245        H  0.99648477  0.87010800  0.05964121     0.37600
H246        H  0.89792194  0.01897492  0.91578881     0.34080
H247        H  0.10343464  0.19510406  0.00735914     0.25860
H248        H  0.79774506  0.13032905  0.99517352     0.31800
H249        H  0.80071651  0.91458122  0.99571979     0.37710
H250        H  0.20425285  0.08339726  0.00549420     0.32170
H251        H  0.20473026  0.86796806  0.99342332     0.31050
H252        H  0.12824211  0.79607163  0.00262635     0.32730
H253        H  0.90536850  0.80661901  0.98067498     0.31700
H254        H  0.09896835  0.08685680  0.11266604     0.35690
H255        H  0.04910016  0.00001528  0.18201263     0.28430
H256        H  0.01466666  0.03962289  0.78589090     0.32660
H257        H  0.85456300  0.87472032  0.91560456     0.35510
H258        H  0.20196230  0.92098010  0.95416711     0.28120
H259        H  0.00142266  0.05099213  0.17965962     0.40990
H260        H  0.93816088  0.20350328  0.96587599     0.31050
H261        H  0.04469014  0.19558277  0.98284676     0.38660
H262        H  0.96796996  0.80712511  0.99701976     0.30520
H263        H  0.80499383  0.07222001  0.96922465     0.30580
H264        H  0.97113356  0.99546730  0.80381946     0.30840
C265        C  0.73531676  0.73518947  0.23606682    -0.02670
C266        C  0.73458198  0.24040883  0.72786386    -0.02670
C267        C  0.23946794  0.73889864  0.72610517    -0.02670
C268        C  0.27270771  0.26946239  0.76242704    -0.02670
C269        C  0.75944623  0.25622649  0.27357377    -0.02670
C270        C  0.25844355  0.75969509  0.27389453    -0.02670
C271        C  0.14092409  0.85635823  0.16436631    -0.05650
C272        C  0.11759106  0.82607084  0.20668451    -0.33080
C273        C  0.15270888  0.79433636  0.24242948     0.36170
C274        C  0.21373689  0.79548857  0.23845885    -0.06000
C275        C  0.23612388  0.82568938  0.19458350    -0.32970
C276        C  0.20099186  0.85515471  0.15821597     0.36080
H277        H  0.07164294  0.82424267  0.21066539     0.16450
O278        O  0.12661902  0.75829004  0.27723667    -0.60470
H279        H  0.28210162  0.82634211  0.18840817     0.16460
O280        O  0.22608390  0.88392747  0.11718664    -0.60570
H281        H  0.24017739  0.85435003  0.09311734     0.43460
H282        H  0.09641428  0.78252989  0.29639993     0.43420
C283        C  0.79393747  0.21078919  0.23905877    -0.05650
C284        C  0.83269399  0.23138692  0.20054021    -0.33080
C285        C  0.86211836  0.19625505  0.16448696     0.36170
C286        C  0.85445368  0.13812596  0.16570087    -0.06000
C287        C  0.81630415  0.11651837  0.20320909    -0.32970
C288        C  0.78503902  0.15196720  0.23870203     0.36080
H289        H  0.83991559  0.27591196  0.19815695     0.16450
O290        O  0.89952931  0.21910399  0.12866468    -0.60470
H291        H  0.80824207  0.07234696  0.20334199     0.16460
O292        O  0.74186811  0.12958709  0.26834445    -0.60570
H293        H  0.76082635  0.09743154  0.28968551     0.43460
H294        H  0.87515629  0.23868585  0.10197066     0.43420
C295        C  0.23169739  0.22914080  0.79268187    -0.05650
C296        C  0.17391481  0.22757031  0.78083193    -0.33080
C297        C  0.13831200  0.19105294  0.80858518     0.36170
C298        C  0.15975427  0.15414851  0.84878575    -0.06000
C299        C  0.21771577  0.15233633  0.85860720    -0.32910
C300        C  0.25379618  0.18733568  0.83003230     0.36080
H301        H  0.15578713  0.25334023  0.74916037     0.16450
O302        O  0.08233803  0.19247993  0.79647430    -0.60470
H303        H  0.23549235  0.12302815  0.88853342     0.16460
O304        O  0.31063225  0.18182083  0.84037309    -0.60570
H305        H  0.32818520  0.14690492  0.82408974     0.43460
H306        H  0.06050666  0.22189136  0.81735948     0.43420
C307        C  0.13971696  0.85946191  0.82851512    -0.05650
C308        C  0.18017988  0.87983339  0.79256291    -0.33080
C309        C  0.21347141  0.84312172  0.75942201     0.36170
C310        C  0.20380506  0.78455099  0.75943565    -0.06000
C311        C  0.16387513  0.76482518  0.79728164    -0.32970
C312        C  0.13242569  0.80122211  0.83118455     0.36080
H313        H  0.18881621  0.92384064  0.79240089     0.16450
O314        O  0.25949737  0.86363774  0.73234022    -0.60470
H315        H  0.15729691  0.72011863  0.80080423     0.16460
O316        O  0.09403891  0.77940729  0.86671632    -0.60570
H317        H  0.11746273  0.76148046  0.89472122     0.43460
H318        H  0.24369992  0.89750405  0.71113924     0.43420
C319        C  0.86151613  0.14870372  0.83002775    -0.05650
C320        C  0.81728974  0.12023341  0.81496182    -0.33080
C321        C  0.77550489  0.14782762  0.78306267     0.36170
C322        C  0.77873880  0.20526929  0.76352845    -0.06000
C323        C  0.82213639  0.23395698  0.78174845    -0.32970
C324        C  0.86320734  0.20621612  0.81390520     0.36080
H325        H  0.81352563  0.07684710  0.82999050     0.16450
O326        O  0.72901635  0.11995967  0.77593814    -0.60470
H327        H  0.82463075  0.27852036  0.77042535     0.16460
O328        O  0.90387140  0.23625962  0.83060595    -0.60570
H329        H  0.93703098  0.23097676  0.80539084     0.43460
H330        H  0.74456077  0.08469700  0.75915728     0.43420
C331        C  0.84632586  0.84450820  0.14089026    -0.05650
C332        C  0.80762120  0.86907233  0.17774336    -0.33080
C333        C  0.76816142  0.83719236  0.20574043     0.36170
C334        C  0.77090322  0.77689985  0.20145786    -0.06000
C335        C  0.80689618  0.75423738  0.16085371    -0.32970
C336        C  0.84415504  0.78713331  0.13115035     0.36080
H337        H  0.80558287  0.91434190  0.18282156     0.16450
O338        O  0.72580553  0.86696741  0.23463765    -0.60470
H339        H  0.80829758  0.70954203  0.15379930     0.16460
O340        O  0.88018056  0.76199148  0.09403129    -0.60570
H341        H  0.85604971  0.76081186  0.06485026     0.43460
H342        H  0.69496839  0.88006169  0.21125403     0.43420
C343        C  0.36486410  0.65025677  0.16595512    -0.05650
C344        C  0.39232225  0.67942031  0.19938724    -0.33080
C345        C  0.36100409  0.71622925  0.23332825     0.36170
C346        C  0.29955461  0.72195407  0.23672996    -0.06000
C347        C  0.27307756  0.69134251  0.20240171    -0.32970
C348        C  0.30474226  0.65752429  0.16683364     0.36080
H349        H  0.43881289  0.67582140  0.19756219     0.16450
O350        O  0.39194344  0.74786214  0.26022458    -0.60470
H351        H  0.22673392  0.69377090  0.20312121     0.16460
O352        O  0.27625732  0.63047897  0.13382239    -0.60570
H353        H  0.26546638  0.65995075  0.10635785     0.43460
H354        H  0.41450274  0.71999678  0.28322437     0.43420
C355        C  0.34971574  0.63684853  0.83525316    -0.05650
C356        C  0.30825148  0.61063421  0.81317305    -0.33080
C357        C  0.27012698  0.64189239  0.77994012     0.36170
C358        C  0.27580957  0.70036206  0.76550411    -0.06000
C359        C  0.31556312  0.72654342  0.79120278    -0.32970
C360        C  0.35227476  0.69546731  0.82509784     0.36080
H361        H  0.30349633  0.56620651  0.82373561     0.16450
O362        O  0.22464028  0.61616455  0.76637290    -0.60470
H363        H  0.31939965  0.77157753  0.78358997     0.16460
O364        O  0.39065810  0.72289840  0.84820049    -0.60570
H365        H  0.42612040  0.71955122  0.82546181     0.43460
H366        H  0.24147942  0.58183442  0.74879095     0.43420
C367        C  0.63058764  0.34841918  0.83641177    -0.05650
C368        C  0.66988530  0.37288032  0.80206443    -0.33080
C369        C  0.70519740  0.33976910  0.76779360     0.36170
C370        C  0.69850814  0.28090966  0.76494018    -0.06000
C371        C  0.66161858  0.25637436  0.80283386    -0.32970
C372        C  0.62752126  0.28954924  0.83763880     0.36080
H373        H  0.67548172  0.41753157  0.80368345     0.16450
O374        O  0.74992200  0.36403525  0.74201727    -0.60470
H375        H  0.65812517  0.21105569  0.80456766     0.16460
O376        O  0.59168198  0.26391802  0.87306447    -0.60570
H377        H  0.55472139  0.26557525  0.85674620     0.43460
H378        H  0.73252725  0.39840549  0.72235978     0.43420
C379        C  0.65523405  0.36739712  0.16488301    -0.05650
C380        C  0.64739113  0.30976369  0.17412509    -0.33080
C381        C  0.68070193  0.27408855  0.20826385     0.36170
C382        C  0.72344315  0.29572336  0.23455116    -0.06000
C383        C  0.73410475  0.35262759  0.22106247    -0.32970
C384        C  0.69958571  0.38852227  0.18790809     0.36080
H385        H  0.61501236  0.29218844  0.15475199     0.16450
O386        O  0.67140393  0.21781108  0.21549851    -0.60470
H387        H  0.77002082  0.36995864  0.23503764     0.16460
O388        O  0.71218571  0.44304641  0.17533318    -0.60570
H389        H  0.71393457  0.46042604  0.20818576     0.43460
H390        H  0.63273995  0.21756696  0.23303173     0.43420
C391        C  0.70109316  0.70538432  0.19909551    -0.05650
C392        C  0.70907045  0.64541650  0.19604051    -0.33080
C393        C  0.67691644  0.61818971  0.16535165     0.36170
C394        C  0.63920439  0.64977976  0.13262597    -0.06000
C395        C  0.63362931  0.70945157  0.13137172    -0.32970
C396        C  0.66382455  0.73732916  0.16440063     0.36080
H397        H  0.74040420  0.61785971  0.21696857     0.16450
O398        O  0.68388293  0.55989610  0.16662889    -0.60470
H399        H  0.60492628  0.73440996  0.10566159     0.16460
O400        O  0.65567931  0.79576552  0.16328351    -0.60570
H401        H  0.67829511  0.80894501  0.13246294     0.43460
H402        H  0.65526148  0.54791868  0.19346341     0.43420
C403        C  0.35863460  0.36736852  0.86461599    -0.05650
C404        C  0.37213178  0.37049547  0.81200774    -0.33080
C405        C  0.34476724  0.34027894  0.77920913     0.36170
C406        C  0.30286336  0.30427195  0.79847854    -0.06000
C407        C  0.28583308  0.30600059  0.85094783    -0.32970
C408        C  0.31375700  0.33582459  0.88374457     0.36080
H409        H  0.40471282  0.39631567  0.79563058     0.16450
O410        O  0.35877158  0.34727628  0.72803159    -0.60470
H411        H  0.24998370  0.28502631  0.86751975     0.16460
O412        O  0.29625286  0.33383242  0.93444419    -0.60570
H413        H  0.26534002  0.36597497  0.93788985     0.43460
H414        H  0.40066676  0.33591330  0.72318169     0.43420
C415        C  0.13366354  0.64654135  0.63593539    -0.05650
C416        C  0.19332697  0.63244591  0.63637598    -0.33080
C417        C  0.22678364  0.66131138  0.66516843     0.36170
C418        C  0.20108536  0.70497699  0.69644420    -0.06000
C419        C  0.14108413  0.71989987  0.69455885    -0.32970
C420        C  0.10769026  0.69084810  0.66560251     0.36080
H421        H  0.21485326  0.59860225  0.61412676     0.16450
O422        O  0.28485585  0.64495766  0.66386814    -0.60470
H423        H  0.11913228  0.75567299  0.71380607     0.16460
O424        O  0.04987225  0.70791402  0.66527940    -0.60570
H425        H  0.03270156  0.68781592  0.69584230     0.43460
H426        H  0.29973300  0.65715242  0.62918122     0.43420
C427        C  0.17737528  0.64892021  0.39260072    -0.05650
C428        C  0.16949625  0.70819597  0.39493960    -0.33080
C429        C  0.19523289  0.74376916  0.35747515     0.36170
C430        C  0.22898478  0.72013747  0.31549570    -0.06000
C431        C  0.23952802  0.65962778  0.31643854    -0.32970
C432        C  0.21346926  0.62468150  0.35375134     0.36080
H433        H  0.14118966  0.72717549  0.42482008     0.16450
O434        O  0.18722654  0.80176936  0.36192162    -0.60470
H435        H  0.26773484  0.63769966  0.28849235     0.16460
O436        O  0.22016289  0.56673944  0.34964646    -0.60570
H437        H  0.25308157  0.55197186  0.37026171     0.43460
H438        H  0.14524742  0.81325120  0.36265371     0.43420
C439        C  0.82629361  0.33750025  0.60713528    -0.05650
C440        C  0.76690783  0.35042910  0.61539495    -0.33080
C441        C  0.73596116  0.31696628  0.65116875     0.36170
C442        C  0.76536101  0.27266929  0.68237866    -0.06000
C443        C  0.82284889  0.25478523  0.66711341    -0.32970
C444        C  0.85313003  0.28657906  0.63050300     0.36080
H445        H  0.74490622  0.38803172  0.59627350     0.16450
O446        O  0.67804154  0.33172665  0.65889040    -0.60470
H447        H  0.84556767  0.21632992  0.68403039     0.16460
O448        O  0.90955173  0.26767057  0.61810264    -0.60570
H449        H  0.93071518  0.27346110  0.64820184     0.43460
H450        H  0.66091015  0.31823295  0.62934584     0.43420
C451        C  0.17259666  0.39223576  0.66098357    -0.05650
C452        C  0.22552325  0.36681878  0.64263670    -0.33080
C453        C  0.25963167  0.32877633  0.67381076     0.36170
C454        C  0.24081502  0.31587377  0.72589618    -0.06000
C455        C  0.19208658  0.35003384  0.74554585    -0.32970
C456        C  0.15659372  0.38561970  0.71317727     0.36080
H457        H  0.23931248  0.37383857  0.60283442     0.16450
O458        O  0.31238161  0.30726717  0.65314515    -0.60470
H459        H  0.17895139  0.34550307  0.78565838     0.16460
O460        O  0.10623068  0.41347409  0.73274031    -0.60570
H461        H  0.07888628  0.38438231  0.73697572     0.43460
H462        H  0.30520638  0.28870552  0.62204380     0.43420
C463        C  0.83184879  0.61168525  0.34109070    -0.05650
C464        C  0.86148495  0.64449093  0.30364786    -0.33080
C465        C  0.83335035  0.68398007  0.26967720     0.36170
C466        C  0.77272614  0.68899299  0.26894854    -0.06000
C467        C  0.74337284  0.65254774  0.30470786    -0.32970
C468        C  0.77211872  0.61495319  0.34056546     0.36080
H469        H  0.90780033  0.64299915  0.30240202     0.16450
O470        O  0.86607196  0.72128272  0.24255879    -0.60470
H471        H  0.69700211  0.65494258  0.30589965     0.16460
O472        O  0.74106926  0.58450375  0.37648959    -0.60570
H473        H  0.73307175  0.55053477  0.35952109     0.43460
H474        H  0.89210035  0.69799368  0.21888751     0.43420
C475        C  0.86279921  0.35216772  0.36432284    -0.05650
C476        C  0.88942453  0.30442275  0.33965653    -0.33080
C477        C  0.85850283  0.27256875  0.31045296     0.36170
C478        C  0.79924556  0.28964856  0.30291665    -0.06000
C479        C  0.77296760  0.33663994  0.32952334    -0.32970
C480        C  0.80368655  0.36801685  0.35862527     0.36080
H481        H  0.93439692  0.29021084  0.34436085     0.16450
O482        O  0.88670596  0.22349752  0.29205852    -0.60470
H483        H  0.72754363  0.34998187  0.32716848     0.16460
O484        O  0.77479198  0.41420645  0.38144892    -0.60570
H485        H  0.77834692  0.44703165  0.35625777     0.43460
H486        H  0.88787398  0.19482560  0.32144347     0.43420
C487        C  0.27848506  0.76571530  0.68292721    -0.05650
C488        C  0.33850257  0.74882867  0.67715928    -0.33080
C489        C  0.37313975  0.77436771  0.63917839     0.36170
C490        C  0.34861000  0.81709723  0.60529665    -0.06000
C491        C  0.28895702  0.83046789  0.60704826    -0.32970
C492        C  0.25384033  0.80459762  0.64462837     0.36080
H493        H  0.35969537  0.71533911  0.70151477     0.16450
O494        O  0.43153606  0.76053419  0.63819041    -0.60470
H495        H  0.26967995  0.86332522  0.58063740     0.16460
O496        O  0.19543441  0.81856880  0.64450657    -0.60570
H497        H  0.18803545  0.85966874  0.65081413     0.43460
H498        H  0.43991250  0.72962591  0.61442530     0.43420
C499        C  0.65375100  0.17686569  0.39651552    -0.05650
C500        C  0.62924678  0.22487862  0.36859121    -0.33080
C501        C  0.66184020  0.25283833  0.33000236     0.36170
C502        C  0.72024137  0.23105130  0.31759451    -0.06000
C503        C  0.74591304  0.18879329  0.35213068    -0.32970
C504        C  0.71314159  0.16077944  0.38998443     0.36080
H505        H  0.58396408  0.23924673  0.37498287     0.16450
O506        O  0.63704759  0.30314565  0.30749659    -0.60470
H507        H  0.79126609  0.17438675  0.34725731     0.16460
O508        O  0.73901784  0.11523478  0.41842760    -0.60570
H509        H  0.74727683  0.13096041  0.45058028     0.43460
H510        H  0.60206006  0.29405576  0.29230720     0.43420
C511        C  0.64157118  0.13459042  0.63947163    -0.05650
C512        C  0.61101358  0.18017002  0.66416349    -0.33080
C513        C  0.63829405  0.21385406  0.69431110     0.36170
C514        C  0.69851955  0.20234703  0.70021181    -0.06000
C515        C  0.72881952  0.15777483  0.67267417    -0.32970
C516        C  0.70089868  0.12330488  0.64407614     0.36080
H517        H  0.56536076  0.19026126  0.65966519     0.16450
O518        O  0.60614988  0.26072751  0.71333022    -0.60470
H519        H  0.77497477  0.14905320  0.67385148     0.16460
O520        O  0.73260298  0.08082044  0.61827394    -0.60570
H521        H  0.73764123  0.04771579  0.64353426     0.43460
H522        H  0.57613633  0.24568678  0.73714654     0.43420
C523        C  0.37875124  0.16527239  0.65507285    -0.05650
C524        C  0.40610136  0.18601872  0.69413838    -0.33080
C525        C  0.37383280  0.21602618  0.73270731     0.36170
C526        C  0.31325060  0.22758712  0.73041372    -0.06000
C527        C  0.28681196  0.20024781  0.69408103    -0.32970
C528        C  0.31874287  0.17060837  0.65645778     0.36080
H529        H  0.45223340  0.17692470  0.69587336     0.16450
O530        O  0.40092569  0.22878329  0.77421427    -0.60470
H531        H  0.24061011  0.20597432  0.69214511     0.16460
O532        O  0.29084135  0.14917706  0.61941598    -0.60570
H533        H  0.27154969  0.11739796  0.63683389     0.43460
H534        H  0.43586303  0.24610336  0.76097554     0.43420
C535        C  0.69613353  0.76687232  0.27721927    -0.05650
C536        C  0.63560255  0.76782085  0.28073358    -0.33080
C537        C  0.60186662  0.79522286  0.31953029     0.36170
C538        C  0.62825093  0.82111243  0.35627255    -0.06000
C539        C  0.68789402  0.81716648  0.35544898    -0.32970
C540        C  0.72178223  0.79068895  0.31687121     0.36080
H541        H  0.61348756  0.74751877  0.25393072     0.16450
O542        O  0.54317952  0.79951339  0.31933441    -0.60470
H543        H  0.70850121  0.83671699  0.38409139     0.16460
O544        O  0.78037623  0.78853164  0.31788929    -0.60570
H545        H  0.78925536  0.82858569  0.31293572     0.43460
H546        H  0.53216678  0.76502861  0.33950857     0.43420
C547        C  0.29221027  0.79792953  0.30468039    -0.05650
C548        C  0.32525485  0.77029156  0.34434097    -0.33080
C549        C  0.35562571  0.79991856  0.37525276     0.36170
C550        C  0.35471559  0.85956029  0.36761391    -0.06000
C551        C  0.32060765  0.88808288  0.33001217    -0.32970
C552        C  0.28832430  0.85882519  0.30016225     0.36080
H553        H  0.32836652  0.72433205  0.35112707     0.16450
O554        O  0.38485714  0.76977251  0.41367570    -0.60470
H555        H  0.31763912  0.93413251  0.32413891     0.16460
O556        O  0.25235855  0.89167620  0.26836937    -0.60570
H557        H  0.21616293  0.90072702  0.28928407     0.43460
H558        H  0.42189492  0.75373802  0.39723107     0.43420
loop_ 
_geom_bond_atom_site_label_1 
_geom_bond_atom_site_label_2 
_geom_bond_distance 
_geom_bond_site_symmetry_2 
_ccdc_geom_bond_type 
Zr1           O2   2.437       .  S
Zr1           O3   2.417       .  S
Zr1           O4   2.454       .  S
Zr1           O7   2.460       .  S
Zr1           O9   2.379       .  S
Zr1          O10   2.382       .  S
Zr1          O11   2.408       .  S
Zr1          O12   2.405       .  S
O2           H58   0.990       .  S
O2           H66   0.990       .  S
O3           C23   1.282       .  A
O4           C25   1.288       .  A
O5          Zr15   2.397   1_545  S
O5           C24   1.278       .  A
O6          Zr14   2.376   1_545  S
O6           C25   1.275       .  A
O7           C24   1.290       .  A
O8          Zr16   2.440   1_545  S
O8           C23   1.285       .  A
O9          Zr14   2.380   1_545  S
O9          Zr16   2.368   1_545  S
O10         Zr15   2.380   1_545  S
O10         Zr16   2.367   1_545  S
O10          H45   0.966       .  S
O11         Zr14   2.391   1_545  S
O11         Zr31   2.400       .  S
O11          H48   0.966       .  S
O12         Zr15   2.387   1_545  S
O12         Zr31   2.403       .  S
Zr13         O38   2.440       .  S
Zr13         O32   2.422       .  S
Zr13         O40   2.432       .  S
Zr13         O28   2.448       .  S
Zr13         O19   2.407       .  S
Zr13         O20   2.403       .  S
Zr13         O21   2.373       .  S
Zr13         O22   2.383       .  S
Zr14         O33   2.436   1_565  S
Zr14         O26   2.435       .  S
Zr14         O27   2.389       .  S
Zr14         O20   2.384       .  S
Zr14         O21   2.370       .  S
Zr15         O17   2.435   1_565  S
Zr15         O39   2.437       .  S
Zr15         O41   2.395       .  S
Zr15         O19   2.385       .  S
Zr15         O22   2.377       .  S
Zr16         O42   2.435       .  S
Zr16         O43   2.435       .  S
Zr16         O18   2.436       .  S
Zr16         O19   2.398       .  S
Zr16         O20   2.404       .  S
O17          H54   0.990       .  S
O18          H49   0.990       .  S
O18          H63   0.990       .  S
O20          H46   0.966       .  S
O21         Zr31   2.370   1_565  S
O22         Zr31   2.372   1_565  S
O22          H47   0.966       .  S
C23         C511   1.475       .  S
C24         C499   1.471       .  S
C25         C523   1.459       .  S
O26          H62   0.990       .  S
O27          C29   1.276       .  A
O28          C29   1.287       .  A
C29         C490   1.462       .  S
O30         Zr31   2.439       .  S
O30          H59   0.990       .  S
Zr31         O34   2.437       .  S
Zr31         O35   2.440       .  S
Zr31         O36   2.438   1_545  S
O32          C37   1.283       .  A
O33          H50   0.990       .  S
O33          H65   0.989       .  S
O34          H51   0.990       .  S
O35          H55   0.990       .  S
O35          H64   0.989       .  S
O36          C37   1.286       .  A
C37         C550   1.492       .  S
O38          H57   0.990       .  S
O38          H61   0.990       .  S
O39          H53   0.990       .  S
O39          H60   0.990       .  S
O40          C44   1.284       .  A
O41          C44   1.279       .  A
O42          H52   0.990       .  S
O43          H56   0.990       .  S
C44         C538   1.458       .  S
Zr67         O68   2.436       .  S
Zr67         O69   2.423       .  S
Zr67         O70   2.471       .  S
Zr67         O73   2.469       .  S
Zr67         O75   2.383       .  S
Zr67         O76   2.385       .  S
Zr67         O77   2.414       .  S
Zr67         O78   2.412       .  S
O68         H124   0.990       .  S
O68         H132   0.990       .  S
O69          C89   1.283       .  A
O70          C91   1.290       .  A
O71         Zr81   2.381       .  S
O71          C90   1.276       .  A
O72         Zr80   2.353   1_655  S
O72          C91   1.271       .  A
O73          C90   1.291       .  A
O74         Zr82   2.454   1_655  S
O74          C89   1.288       .  A
O75         Zr80   2.382   1_655  S
O75         Zr82   2.367   1_655  S
O76         Zr81   2.386       .  S
O76         Zr82   2.365   1_655  S
O76         H111   0.966       .  S
O77         Zr80   2.390   1_655  S
O77         Zr97   2.397       .  S
O77         H114   0.966       .  S
O78         Zr81   2.391       .  S
O78         Zr97   2.405       .  S
Zr79        O104   2.440       .  S
Zr79         O98   2.418       .  S
Zr79        O106   2.437       .  S
Zr79         O94   2.453       .  S
Zr79         O85   2.406       .  S
Zr79         O86   2.401       .  S
Zr79         O87   2.374       .  S
Zr79         O88   2.380       .  S
Zr80         O99   2.438   1_455  S
Zr80         O92   2.436       .  S
Zr80         O93   2.390       .  S
Zr80         O86   2.379       .  S
Zr80         O87   2.365       .  S
Zr81         O83   2.436       .  S
Zr81        O105   2.436   1_655  S
Zr81        O107   2.404   1_655  S
Zr81         O85   2.385   1_655  S
Zr81         O88   2.371   1_655  S
Zr82        O108   2.435       .  S
Zr82        O109   2.435       .  S
Zr82         O84   2.436       .  S
Zr82         O85   2.409       .  S
Zr82         O86   2.404       .  S
O83         H120   0.990       .  S
O84         H115   0.990       .  S
O84         H129   0.990       .  S
O86         H112   0.966       .  S
O87         Zr97   2.371   1_455  S
O88         Zr97   2.362   1_455  S
O88         H113   0.965       .  S
C89         C475   1.498       .  S
C90         C439   1.480       .  S
C91         C463   1.484       .  S
O92         H128   0.990       .  S
O93          C95   1.276       .  A
O94          C95   1.287       .  A
C95         C427   1.462       .  S
O96         Zr97   2.438       .  S
O96         H125   0.990       .  S
Zr97        O100   2.437       .  S
Zr97        O101   2.440       .  S
Zr97        O102   2.442   1_655  S
O98         C103   1.284       .  A
O99         H116   0.990       .  S
O99         H131   0.990       .  S
O100        H117   0.990       .  S
O101        H121   0.990       .  S
O101        H130   0.990       .  S
O102        C103   1.286       .  A
C103        C415   1.490       .  S
O104        H123   0.990       .  S
O104        H127   0.990       .  S
O105        H119   0.990       .  S
O105        H126   0.990       .  S
O106        C110   1.287       .  A
O107        C110   1.279       .  A
O108        H118   0.990       .  S
O109        H122   0.990       .  S
C110        C451   1.463       .  S
Zr133       O134   2.438       .  S
Zr133       O135   2.425       .  S
Zr133       O136   2.465       .  S
Zr133       O139   2.447       .  S
Zr133       O141   2.379       .  S
Zr133       O142   2.382       .  S
Zr133       O143   2.406       .  S
Zr133       O144   2.405       .  S
O134        H190   0.990       .  S
O134        H198   0.990       .  S
O135        C155   1.284       .  A
O136        C157   1.290       .  A
O137       Zr147   2.410   1_554  S
O137        C156   1.281       .  A
O138       Zr146   2.414       .  S
O138        C157   1.280       .  A
O139        C156   1.288       .  A
O140       Zr148   2.428   1_554  S
O140        C155   1.281       .  A
O141       Zr146   2.392       .  S
O141       Zr148   2.381   1_554  S
O142       Zr147   2.381   1_554  S
O142       Zr148   2.372   1_554  S
O142        H177   0.966       .  S
O143       Zr146   2.394       .  S
O143       Zr163   2.398       .  S
O143        H180   0.966       .  S
O144       Zr147   2.391   1_554  S
O144       Zr163   2.398       .  S
Zr145       O170   2.441       .  S
Zr145       O164   2.416       .  S
Zr145       O172   2.443       .  S
Zr145       O160   2.442       .  S
Zr145       O151   2.399       .  S
Zr145       O152   2.402       .  S
Zr145       O153   2.378       .  S
Zr145       O154   2.380       .  S
Zr146       O165   2.438       .  S
Zr146       O158   2.435   1_554  S
Zr146       O159   2.417   1_554  S
Zr146       O152   2.395   1_554  S
Zr146       O153   2.382   1_554  S
Zr147       O149   2.435   1_556  S
Zr147       O171   2.438       .  S
Zr147       O173   2.413       .  S
Zr147       O151   2.390       .  S
Zr147       O154   2.377       .  S
Zr148       O174   2.435       .  S
Zr148       O175   2.435       .  S
Zr148       O150   2.437       .  S
Zr148       O151   2.396       .  S
Zr148       O152   2.400       .  S
O149        H186   0.990       .  S
O150        H181   0.990       .  S
O150        H195   0.990   1_556  S
O152        H178   0.966       .  S
O153       Zr163   2.372   1_556  S
O154       Zr163   2.373   1_556  S
O154        H179   0.966       .  S
C155        C394   1.469       .  S
C156        C343   1.475       .  S
C157        C379   1.477       .  S
O158        H194   0.990   1_556  S
O159        C161   1.281       .  A
O160        C161   1.286       .  A
C161        C367   1.467       .  S
O162       Zr163   2.439       .  S
O162        H191   0.990       .  S
Zr163       O166   2.437       .  S
Zr163       O167   2.439       .  S
Zr163       O168   2.433   1_554  S
O164        C169   1.283       .  A
O165        H182   0.990       .  S
O165        H197   0.990       .  S
O166        H183   0.990       .  S
O167        H187   0.990       .  S
O167        H196   0.990       .  S
O168        C169   1.284       .  A
C169        C403   1.487       .  S
O170        H189   0.990       .  S
O170        H193   0.990       .  S
O171        H185   0.990       .  S
O171        H192   0.990   1_556  S
O172        C176   1.286       .  A
O173        C176   1.281       .  A
O174        H184   0.990       .  S
O175        H188   0.990       .  S
C176        C355   1.468       .  S
Zr199       O200   2.441       .  S
Zr199       O201   2.455       .  S
Zr199       O202   2.468   1_455  S
Zr199       O205   2.467   1_545  S
Zr199       O207   2.386       .  S
Zr199       O208   2.388       .  S
Zr199       O209   2.414   1_455  S
Zr199       O210   2.407   1_545  S
O200        H256   0.990       .  S
O200        H264   0.990   1_445  S
O201        C221   1.287       .  A
O202        C223   1.289       .  A
O203       Zr213   2.415       .  S
O203        C222   1.282       .  A
O204       Zr212   2.425       .  S
O204        C223   1.282       .  A
O205        C222   1.291       .  A
O206       Zr214   2.420   1_556  S
O206        C221   1.281       .  A
O207       Zr212   2.398   1_455  S
O207       Zr214   2.380   1_556  S
O208       Zr213   2.393   1_545  S
O208       Zr214   2.374   1_556  S
O208        H243   0.966       .  S
O209       Zr212   2.402       .  S
O209       Zr229   2.387   1_545  S
O209        H246   0.965       .  S
O210       Zr213   2.389       .  S
O210       Zr229   2.389   1_455  S
Zr211       O236   2.453   1_665  S
Zr211       O230   2.464       .  S
Zr211       O238   2.472   1_655  S
Zr211       O226   2.472   1_565  S
Zr211       O217   2.409   1_655  S
Zr211       O218   2.414   1_565  S
Zr211       O219   2.384       .  S
Zr211       O220   2.388       .  S
Zr212       O231   2.436   1_556  S
Zr212       O224   2.436       .  S
Zr212       O225   2.430   1_556  S
Zr212       O218   2.394   1_556  S
Zr212       O219   2.392   1_546  S
Zr213       O215   2.435   1_556  S
Zr213       O237   2.439       .  S
Zr213       O239   2.419   1_556  S
Zr213       O217   2.387   1_556  S
Zr213       O220   2.387   1_456  S
Zr214       O240   2.435       .  S
Zr214       O241   2.435       .  S
Zr214       O216   2.437       .  S
Zr214       O217   2.392   1_545  S
Zr214       O218   2.394   1_455  S
O215        H252   0.990       .  S
O216        H247   0.990       .  S
O216        H261   0.990   1_554  S
O218        H244   0.965       .  S
O219       Zr229   2.382   1_554  S
O220       Zr229   2.379   1_554  S
O220        H245   0.966       .  S
C221        C298   1.484       .  S
C222        C307   1.482       .  S
C223        C319   1.476       .  S
O224        H260   0.990       .  S
O225        C227   1.285       .  A
O226        C227   1.291       .  A
C227        C286   1.489       .  S
O228       Zr229   2.440       .  S
O228        H257   0.990       .  S
Zr229       O232   2.437       .  S
Zr229       O233   2.439       .  S
Zr229       O234   2.407   1_556  S
O230        C235   1.291       .  A
O231        H248   0.990   1_554  S
O231        H263   0.990   1_554  S
O232        H249   0.990       .  S
O233        H253   0.990       .  S
O233        H262   0.990       .  S
O234        C235   1.279       .  A
C235        C331   1.480       .  S
O236        H255   0.990       .  S
O236        H259   0.990       .  S
O237        H251   0.990       .  S
O237        H258   0.990       .  S
O238        C242   1.292       .  A
O239        C242   1.283       .  A
O240        H250   0.990       .  S
O241        H254   0.990       .  S
C242        C271   1.491       .  S
C265        C334   1.570       .  S
C265        C391   1.563       .  S
C265        C466   1.568       .  S
C265        C535   1.551       .  S
C266        C322   1.571       .  S
C266        C370   1.557       .  S
C266        C442   1.557       .  S
C266        C514   1.558       .  S
C267        C310   1.570       .  S
C267        C358   1.562       .  S
C267        C418   1.561       .  S
C267        C487   1.559       .  S
C268        C295   1.574       .  S
C268        C406   1.561       .  S
C268        C454   1.564       .  S
C268        C526   1.546       .  S
C269        C283   1.574       .  S
C269        C382   1.562       .  S
C269        C478   1.571       .  S
C269        C502   1.560       .  S
C270        C274   1.582       .  S
C270        C346   1.577       .  S
C270        C430   1.568       .  S
C270        C547   1.574       .  S
C271        C272   1.397       .  A
C271        C276   1.408       .  A
C272        C273   1.411       .  A
C272        H277   1.084       .  S
C273        C274   1.435       .  A
C273        O278   1.371       .  S
C274        C275   1.418       .  A
C275        C276   1.401       .  A
C275        H279   1.084       .  S
C276        O280   1.372       .  S
O278        H282   0.992       .  S
O280        H281   0.992       .  S
C283        C284   1.416       .  A
C283        C288   1.433       .  A
C284        C285   1.401       .  A
C284        H289   1.083       .  S
C285        C286   1.406       .  A
C285        O290   1.372       .  S
C286        C287   1.399       .  A
C287        C288   1.412       .  A
C287        H291   1.084       .  S
C288        O292   1.371       .  S
O290        H294   0.992       .  S
O292        H293   0.993       .  S
C295        C296   1.421       .  A
C295        C300   1.423       .  A
C296        C297   1.406       .  A
C296        H301   1.079       .  S
C297        C298   1.405       .  A
C297        O302   1.372       .  S
C298        C299   1.400       .  A
C299        C300   1.400       .  A
C299        H303   1.084       .  S
C300        O304   1.372       .  S
O302        H306   0.992       .  S
O304        H305   0.992       .  S
C307        C308   1.398       .  A
C307        C312   1.405       .  A
C308        C309   1.410       .  A
C308        H313   1.084       .  S
C309        C310   1.431       .  A
C309        O314   1.373       .  S
C310        C311   1.415       .  A
C311        C312   1.400       .  A
C311        H315   1.083       .  S
C312        O316   1.372       .  S
O314        H318   0.992       .  S
O316        H317   0.992       .  S
C319        C320   1.399       .  A
C319        C324   1.400       .  A
C320        C321   1.407       .  A
C320        H325   1.084       .  S
C321        C322   1.426       .  A
C321        O326   1.373       .  S
C322        C323   1.420       .  A
C323        C324   1.401       .  A
C323        H327   1.082       .  S
C324        O328   1.372       .  S
O326        H330   0.992       .  S
O328        H329   0.992       .  S
C331        C332   1.395       .  A
C331        C336   1.407       .  A
C332        C333   1.402       .  A
C332        H337   1.084       .  S
C333        C334   1.433       .  A
C333        O338   1.370       .  S
C334        C335   1.415       .  A
C335        C336   1.402       .  A
C335        H339   1.083       .  S
C336        O340   1.372       .  S
O338        H342   0.991       .  S
O340        H341   0.992       .  S
C343        C344   1.395       .  A
C343        C348   1.402       .  A
C344        C345   1.405       .  A
C344        H349   1.084       .  S
C345        C346   1.432       .  A
C345        O350   1.369       .  S
C346        C347   1.420       .  A
C347        C348   1.396       .  A
C347        H351   1.083       .  S
C348        O352   1.372       .  S
O350        H354   0.993       .  S
O352        H353   0.992       .  S
C355        C356   1.397       .  A
C355        C360   1.400       .  A
C356        C357   1.405       .  A
C356        H361   1.084       .  S
C357        C358   1.427       .  A
C357        O362   1.372       .  S
C358        C359   1.416       .  A
C359        C360   1.394       .  A
C359        H363   1.083       .  S
C360        O364   1.372       .  S
O362        H366   0.993       .  S
O364        H365   0.992       .  S
C367        C368   1.394       .  A
C367        C372   1.401       .  A
C368        C369   1.402       .  A
C368        H373   1.084       .  S
C369        C370   1.428       .  A
C369        O374   1.373       .  S
C370        C371   1.416       .  A
C371        C372   1.399       .  A
C371        H375   1.082       .  S
C372        O376   1.372       .  S
O374        H378   0.993       .  S
O376        H377   0.992       .  S
C379        C380   1.399       .  A
C379        C384   1.402       .  A
C380        C381   1.402       .  A
C380        H385   1.084       .  S
C381        C382   1.423       .  A
C381        O386   1.372       .  S
C382        C383   1.414       .  A
C383        C384   1.403       .  A
C383        H387   1.080       .  S
C384        O388   1.370       .  S
O386        H390   0.992       .  S
O388        H389   0.992       .  S
C391        C392   1.416       .  A
C391        C396   1.424       .  A
C392        C393   1.386       .  A
C392        H397   1.078       .  S
C393        C394   1.394       .  A
C393        O398   1.367       .  S
C394        C395   1.400       .  A
C395        C396   1.408       .  A
C395        H399   1.083       .  S
C396        O400   1.371       .  S
O398        H402   0.992       .  S
O400        H401   0.992       .  S
C403        C404   1.401       .  A
C403        C408   1.408       .  A
C404        C405   1.398       .  A
C404        H409   1.083       .  S
C405        C406   1.422       .  A
C405        O410   1.371       .  S
C406        C407   1.417       .  A
C407        C408   1.399       .  A
C407        H411   1.079       .  S
C408        O412   1.372       .  S
O410        H414   0.992       .  S
O412        H413   0.992       .  S
C415        C416   1.403       .  A
C415        C420   1.410       .  A
C416        C417   1.397       .  A
C416        H421   1.083       .  S
C417        C418   1.422       .  A
C417        O422   1.373       .  S
C418        C419   1.416       .  A
C419        C420   1.401       .  A
C419        H423   1.079       .  S
C420        O424   1.372       .  S
O422        H426   0.992       .  S
O424        H425   0.992       .  S
C427        C428   1.398       .  A
C427        C432   1.397       .  A
C428        C429   1.403       .  A
C428        H433   1.084       .  S
C429        C430   1.426       .  A
C429        O434   1.375       .  S
C430        C431   1.422       .  A
C431        C432   1.395       .  A
C431        H435   1.077       .  S
C432        O436   1.372       .  S
O434        H438   0.991       .  S
O436        H437   0.991       .  S
C439        C440   1.399       .  A
C439        C444   1.411       .  A
C440        C441   1.407       .  A
C440        H445   1.083       .  S
C441        C442   1.426       .  A
C441        O446   1.370       .  S
C442        C443   1.408       .  A
C443        C444   1.390       .  A
C443        H447   1.081       .  S
C444        O448   1.374       .  S
O446        H450   0.992       .  S
O448        H449   0.992       .  S
C451        C452   1.388       .  A
C451        C456   1.405       .  A
C452        C453   1.393       .  A
C452        H457   1.085       .  S
C453        C454   1.437       .  A
C453        O458   1.375       .  S
C454        C455   1.412       .  A
C455        C456   1.400       .  A
C455        H459   1.083       .  S
C456        O460   1.372       .  S
O458        H462   0.993       .  S
O460        H461   0.992       .  S
C463        C464   1.409       .  A
C463        C468   1.398       .  A
C464        C465   1.387       .  A
C464        H469   1.084       .  S
C465        C466   1.418       .  A
C465        O470   1.369       .  S
C466        C467   1.429       .  A
C467        C468   1.402       .  A
C467        H471   1.083       .  S
C468        O472   1.371       .  S
O470        H474   0.993       .  S
O472        H473   0.991       .  S
C475        C476   1.405       .  A
C475        C480   1.411       .  A
C476        C477   1.409       .  A
C476        H481   1.083       .  S
C477        C478   1.427       .  A
C477        O482   1.370       .  S
C478        C479   1.415       .  A
C479        C480   1.397       .  A
C479        H483   1.082       .  S
C480        O484   1.372       .  S
O482        H486   0.992       .  S
O484        H485   0.992       .  S
C487        C488   1.421       .  A
C487        C492   1.421       .  A
C488        C489   1.396       .  A
C488        H493   1.079       .  S
C489        C490   1.397       .  A
C489        O494   1.372       .  S
C490        C491   1.399       .  A
C491        C492   1.399       .  A
C491        H495   1.084       .  S
C492        O496   1.374       .  S
O494        H498   0.992       .  S
O496        H497   0.991       .  S
C499        C500   1.394       .  A
C499        C504   1.405       .  A
C500        C501   1.406       .  A
C500        H505   1.084       .  S
C501        C502   1.432       .  A
C501        O506   1.374       .  S
C502        C503   1.411       .  A
C503        C504   1.396       .  A
C503        H507   1.082       .  S
C504        O508   1.372       .  S
O506        H510   0.992       .  S
O508        H509   0.992       .  S
C511        C512   1.399       .  A
C511        C516   1.401       .  A
C512        C513   1.402       .  A
C512        H517   1.084       .  S
C513        C514   1.427       .  A
C513        O518   1.372       .  S
C514        C515   1.418       .  A
C515        C516   1.398       .  A
C515        H519   1.082       .  S
C516        O520   1.372       .  S
O518        H522   0.993       .  S
O520        H521   0.992       .  S
C523        C524   1.400       .  A
C523        C528   1.400       .  A
C524        C525   1.410       .  A
C524        H529   1.084       .  S
C525        C526   1.423       .  A
C525        O530   1.374       .  S
C526        C527   1.413       .  A
C527        C528   1.384       .  A
C527        H531   1.083       .  S
C528        O532   1.373       .  S
O530        H534   0.992       .  S
O532        H533   0.992       .  S
C535        C536   1.417       .  A
C535        C540   1.426       .  A
C536        C537   1.400       .  A
C536        H541   1.078       .  S
C537        C538   1.401       .  A
C537        O542   1.372       .  S
C538        C539   1.393       .  A
C539        C540   1.388       .  A
C539        H543   1.085       .  S
C540        O544   1.375       .  S
O542        H546   0.992       .  S
O544        H545   0.992       .  S
C547        C548   1.420       .  A
C547        C552   1.429       .  A
C548        C549   1.397       .  A
C548        H553   1.083       .  S
C549        C550   1.408       .  A
C549        O554   1.372       .  S
C550        C551   1.402       .  A
C551        C552   1.402       .  A
C551        H555   1.084       .  S
C552        O556   1.367       .  S
O554        H558   0.992       .  S
O556        H557   0.992       .  S
