geometry optimzed in LAMMPS
_audit_creation_date              2020-12-01 
_audit_creation_method            'lammps2cif' 
_symmetry_space_group_name_H-M    'P1' 
_symmetry_Int_Tables_number       1 
_symmetry_cell_setting            triclinic 
loop_ 
_symmetry_equiv_pos_as_xyz 
  x,y,z 
_cell_length_a                    18.25824992 
_cell_length_b                    14.695018817674265 
_cell_length_c                    49.043240340872465 
_cell_angle_alpha                 89.3368584224662 
_cell_angle_beta                  89.50808308605998 
_cell_angle_gamma                 87.953451313244 
loop_ 
_atom_site_label 
_atom_site_type_symbol 
_atom_site_fract_x 
_atom_site_fract_y 
_atom_site_fract_z 
_atom_site_charge 
N1          N  0.09058659  0.24046936  0.88590337     0.00400
C2          C  0.11307602  0.17335752  0.90377226     0.03000
C3          C  0.55737927  0.02289122  0.90339945    -0.19900
C4          C  0.53235352  0.02164301  0.87722201    -0.20100
C5          C  0.07043063  0.19676161  0.86282405     0.02900
H6          H  0.56286102  0.96442015  0.91697039     0.16700
H7          H  0.51747621  0.96114013  0.86656049     0.16700
N8          N  0.11570183  0.33123041  0.88554280     0.00400
C9          C  0.09822539  0.39853154  0.90358852     0.03000
C10         C  0.11259656  0.48221089  0.89184487    -0.19900
C11         C  0.14287729  0.46628976  0.86652102    -0.20100
C12         C  0.14554161  0.37295528  0.86327050     0.02900
H13         H  0.10998574  0.54738551  0.90195131     0.16700
H14         H  0.16520295  0.51728085  0.85305868     0.16700
O15         O  0.24596230  0.25615602  0.72873972    -0.53900
C16         C  0.42021122  0.11668283  0.80110214     0.78700
O17         O  0.24382846  0.22397531  0.79613125    -0.55100
C18         C  0.21807358  0.18047291  0.72331968     0.78700
C19         C  0.40876822  0.16392870  0.71034301     0.81100
Cd20       Cd  0.33114233  0.19467131  0.76007984     1.37500
O21         O  0.43380368  0.19319391  0.79017597    -0.53900
O22         O  0.41667166  0.23950280  0.72250452    -0.52700
C23         C  0.25314633  0.30907133  0.79762512     0.81100
O24         O  0.37601219  0.10200195  0.72325555    -0.55100
O25         O  0.36846254  0.07175655  0.79121649    -0.53500
O26         O  0.23333643  0.11232882  0.73893589    -0.53500
O27         O  0.29776176  0.34390423  0.78059681    -0.52700
N28         N  0.16239438  0.32599323  0.38423990     0.00400
C29         C  0.12583213  0.28880116  0.40603618     0.03000
C30         C  0.06014209  0.25475948  0.39790997    -0.19900
C31         C  0.05475591  0.27028119  0.37048305    -0.20100
C32         C  0.11712899  0.31388151  0.36240306     0.02900
H33         H  0.02027607  0.22146522  0.41069029     0.16700
H34         H  0.00918241  0.25326130  0.35773777     0.16700
N35         N  0.22300376  0.38481881  0.38491715     0.00400
C36         C  0.22922011  0.45202091  0.40380191     0.03000
C37         C  0.25749762  0.52851396  0.39145457    -0.19900
C38         C  0.27546511  0.50584331  0.36524426    -0.20100
C39         C  0.25631997  0.41645736  0.36184721     0.02900
H40         H  0.27551303  0.58889376  0.40148361     0.16700
H41         H  0.30769834  0.54693013  0.35158301     0.16700
O42         O  0.97137858  0.34718048  0.20827933    -0.53900
C43         C  0.10455109  0.28008113  0.28790165     0.78700
O44         O  0.38097599  0.26638619  0.29541858    -0.55100
C45         C  0.90502153  0.32445039  0.20633086     0.78700
C46         C  0.06186323  0.11032755  0.20895071     0.81100
Cd47       Cd  0.99927735  0.23382295  0.24676886     1.37500
O48         O  0.06239474  0.34267134  0.27801293    -0.53900
O49         O  0.07873417  0.19305801  0.20951298    -0.52700
C50         C  0.37106980  0.35171948  0.29854034     0.81100
O51         O  0.01785873  0.08215765  0.22713852    -0.55100
O52         O  0.10647192  0.20520482  0.27549633    -0.53500
O53         O  0.88339517  0.26637096  0.22353933    -0.53500
O54         O  0.90449410  0.27029591  0.27837721    -0.52700
N55         N  0.18413328  0.28212634  0.62915883     0.00400
C56         C  0.17272016  0.21834236  0.64891266     0.03000
C57         C  0.18195129  0.13187639  0.63793401    -0.19900
C58         C  0.20261860  0.14275789  0.61115994    -0.20100
C59         C  0.20687139  0.23499586  0.60662478     0.02900
H60         H  0.18183956  0.06728974  0.64872999     0.16700
H61         H  0.21963441  0.08892973  0.59742801     0.16700
N62         N  0.16011979  0.37575536  0.62923185     0.00400
C63         C  0.18385192  0.43990283  0.64679715     0.03000
C64         C  0.19436363  0.52054357  0.63240778    -0.19900
C65         C  0.16839373  0.50964086  0.60670228    -0.20100
C66         C  0.14564367  0.42137262  0.60553917     0.02900
H67         H  0.20600335  0.58608692  0.64091065     0.16700
H68         H  0.16045062  0.56322320  0.59159542     0.16700
O69         O  0.32783982  0.40947469  0.48222874    -0.53900
C70         C  0.04059614  0.43101616  0.54035834     0.78700
O71         O  0.49654624  0.50141169  0.48179171    -0.55100
C72         C  0.29972415  0.48683797  0.47601024     0.78700
C73         C  0.33184855  0.37919132  0.56123676     0.81100
Cd74       Cd  0.41083520  0.46126872  0.51694353     1.37500
O75         O  0.02047217  0.50884614  0.53141117    -0.53900
O76         O  0.36620538  0.32984787  0.54385756    -0.52700
C77         C  0.51737416  0.42112540  0.47556240     0.81100
O78         O  0.33364786  0.46459172  0.55783185    -0.55100
O79         O  0.45892260  0.60340159  0.53564550    -0.53500
O80         O  0.31790601  0.55353778  0.49056367    -0.53500
O81         O  0.49370581  0.35666795  0.49045428    -0.52700
N82         N  0.32932381  0.69190560  0.87952496     0.00400
C83         C  0.35020628  0.62499427  0.89773010     0.03000
C84         C  0.35336123  0.54196015  0.88465688    -0.19900
C85         C  0.33018546  0.55681372  0.85846138    -0.20100
C86         C  0.31320111  0.64908684  0.85590937     0.02900
H87         H  0.35998181  0.47546439  0.89423517     0.16700
H88         H  0.31873175  0.50360311  0.84424100     0.16700
N89         N  0.33536403  0.78794880  0.88230423     0.00400
C90         C  0.30757018  0.84006067  0.90321513     0.03000
C91         C  0.29482974  0.92875062  0.89443891    -0.19900
C92         C  0.31817450  0.93376964  0.86796149    -0.20100
C93         C  0.34434037  0.84793594  0.86100841     0.02900
H94         H  0.27782324  0.98619265  0.90691269     0.16700
H95         H  0.32054885  0.99521558  0.85562837     0.16700
O96         O  0.07763531  0.83867487  0.73038294    -0.53900
C97         C  0.19707774  0.66472147  0.79106438     0.78700
O98         O  0.51315595  0.70863681  0.79253158    -0.55100
C99         C  0.03440623  0.81743983  0.71144866     0.78700
C100        C  0.14690535  0.56157521  0.71406896     0.81100
Cd101      Cd  0.07736560  0.68435214  0.75326829     1.37500
O102        O  0.17678695  0.74436503  0.78308831    -0.53900
O103        O  0.17713529  0.62947469  0.72418197    -0.52700
C104        C  0.48247565  0.77728650  0.80414809     0.81100
O105        O  0.08257971  0.54541942  0.72273442    -0.55100
O106        O  0.16279029  0.59904568  0.78164536    -0.53500
O107        O  0.00925354  0.73837432  0.71284687    -0.53500
O108        O  0.99250438  0.74770611  0.78907299    -0.52700
N109        N  0.22448134  0.00081141  0.14766703     0.00400
C110        C  0.25331409  0.03425965  0.17103032     0.03000
C111        C  0.29629481  0.10716577  0.16498273    -0.19900
C112        C  0.29898080  0.11518535  0.13718046    -0.20100
C113        C  0.25720783  0.04694211  0.12687696     0.02900
H114        H  0.32915530  0.14390737  0.17913986     0.16700
H115        H  0.33592414  0.15782505  0.12585190     0.16700
N116        N  0.16621286  0.93886591  0.14533497     0.00400
C117        C  0.12352462  0.90675757  0.16591963     0.03000
C118        C  0.08275165  0.83638390  0.15682649    -0.19900
C119        C  0.09448990  0.83179456  0.12918304    -0.20100
C120        C  0.14162712  0.90046953  0.12218331     0.02900
H121        H  0.03887630  0.80429938  0.16786243     0.16700
H122        H  0.06034193  0.79562780  0.11534365     0.16700
O123        O  0.34939429  0.94650464  0.05146254    -0.53900
C124        C  0.48154877  0.10580556  0.97638445     0.78700
O125        O  0.04026032  0.90592758  0.03388671    -0.52700
C126        C  0.33364283  0.03030090  0.05495824     0.78700
C127        C  0.39896995  0.85391744  0.97106725     0.81100
Cd128      Cd  0.43977021  0.97277400  0.01487776     1.37500
O129        O  0.41575835  0.10314464  0.98453657    -0.53900
O130        O  0.35098576  0.89667439  0.98521226    -0.52700
C131        C  0.06930571  0.95486860  0.05145781     0.81100
O132        O  0.46402027  0.85489589  0.97968015    -0.55100
O133        O  0.52858486  0.05595316  0.98885648    -0.53500
O134        O  0.36155798  0.08590202  0.03834413    -0.53500
O135        O  0.54414046  0.00781625  0.04449301    -0.52700
N136        N  0.53493702  0.57399778  0.13771744     0.00400
C137        C  0.57080863  0.52253435  0.15719018     0.03000
C138        C  0.97393067  0.28605091  0.14591900    -0.19900
C139        C  0.02670047  0.29008615  0.12572725    -0.20100
C140        C  0.01446168  0.37170588  0.11170954     0.02900
H141        H  0.96699813  0.23046452  0.16026573     0.16700
H142        H  0.07033605  0.23963014  0.12238823     0.16700
N143        N  0.47425448  0.63645467  0.14116642     0.00400
C144        C  0.46942601  0.70305936  0.16034059     0.03000
C145        C  0.41876032  0.76994056  0.15222163    -0.19900
C146        C  0.39136669  0.74437577  0.12766593    -0.20100
C147        C  0.42560163  0.66167756  0.12124360     0.02900
H148        H  0.39703196  0.82575438  0.16442156     0.16700
H149        H  0.34654019  0.77915155  0.11713567     0.16700
O150        O  0.14749643  0.47538300  0.04516341    -0.53900
C151        C  0.33477665  0.54441281  0.97166034     0.78700
O152        O  0.34981224  0.49786116  0.05155097    -0.55100
C153        C  0.16381970  0.39822630  0.05623060     0.78700
C154        C  0.18523786  0.39286527  0.97272753     0.81100
Cd155      Cd  0.25538120  0.47658077  0.01652476     1.37500
O156        O  0.27740673  0.58681261  0.98075522    -0.53900
O157        O  0.15766309  0.46591485  0.98318349    -0.52700
C158        C  0.32731329  0.57935452  0.05661272     0.81100
O159        O  0.24041913  0.35430398  0.98457724    -0.55100
O160        O  0.35949990  0.47532323  0.98529384    -0.53500
O161        O  0.22249326  0.35617879  0.04824916    -0.53500
O162        O  0.27394414  0.61234337  0.04254997    -0.52700
N163        N  0.05402938  0.74530379  0.38505454     0.00400
C164        C  0.06246958  0.67153075  0.40191514     0.03000
C165        C  0.53262620  0.40438621  0.39107269    -0.19900
C166        C  0.51027121  0.44276710  0.36691409    -0.20100
C167        C  0.04418825  0.71176378  0.35965635     0.02900
H168        H  0.50921123  0.34476136  0.40032437     0.16700
H169        H  0.46924200  0.41487844  0.35398894     0.16700
N170        N  0.07843074  0.83449780  0.39018490     0.00400
C171        C  0.05732456  0.88973242  0.41115513     0.03000
C172        C  0.07238548  0.97891854  0.40452064    -0.19900
C173        C  0.10800412  0.97827620  0.37981161    -0.20100
C174        C  0.11330997  0.88843881  0.37167481     0.02900
H175        H  0.06745147  0.03680030  0.41797174     0.16700
H176        H  0.13208206  0.03668402  0.37012777     0.16700
O177        O  0.32333413  0.91754676  0.24625998    -0.53900
C178        C  0.42917905  0.66341011  0.31106114     0.78700
O179        O  0.25313480  0.79515117  0.30422936    -0.55100
C180        C  0.28580941  0.86790525  0.23088223     0.78700
C181        C  0.46261121  0.76455618  0.23351519     0.81100
Cd182      Cd  0.36276869  0.79563247  0.27633419     1.37500
O183        O  0.45457613  0.74316632  0.30964457    -0.53900
O184        O  0.47088584  0.83351990  0.24882646    -0.52700
C185        C  0.26619361  0.86839583  0.31668008     0.81100
O186        O  0.41542274  0.70703185  0.24080746    -0.55100
O187        O  0.37353486  0.64701076  0.29659011    -0.53500
O188        O  0.27686511  0.78547395  0.23843792    -0.53500
O189        O  0.32446234  0.90940787  0.31007093    -0.52700
N190        N  0.48280950  0.01387675  0.62385705     0.00400
C191        C  0.46067137  0.96140261  0.64534508     0.03000
C192        C  0.01791344  0.12394002  0.66565551    -0.19900
C193        C  0.99831463  0.15942887  0.64074922    -0.20100
C194        C  0.97364568  0.08838662  0.62554308     0.02900
H195        H  0.03932086  0.16118618  0.68244571     0.16700
H196        H  0.01009645  0.22717258  0.63340137     0.16700
N197        N  0.47259012  0.11039487  0.62107073     0.00400
C198        C  0.49499186  0.17514813  0.63877884     0.03000
C199        C  0.49924382  0.25800605  0.62543807    -0.19900
C200        C  0.47683315  0.24594387  0.59918735    -0.20100
C201        C  0.45818279  0.15617721  0.59704979     0.02900
H202        H  0.50973954  0.32287396  0.63460584     0.16700
H203        H  0.46904744  0.29917922  0.58396773     0.16700
O204        O  0.08515898  0.10688673  0.54652772    -0.53900
C205        C  0.19706392  0.16319115  0.46881322     0.78700
O206        O  0.27881950  0.97723754  0.54788513    -0.55100
C207        C  0.07761051  0.03205445  0.55948074     0.78700
C208        C  0.14053930  0.90260159  0.47745253     0.81100
Cd209      Cd  0.18417973  0.03990288  0.51526069     1.37500
O210        O  0.15093307  0.18174934  0.48779757    -0.53900
O211        O  0.09522457  0.95909822  0.48812519    -0.52700
C212        C  0.31176460  0.05069572  0.55098657     0.81100
O213        O  0.20539473  0.90143526  0.48672188    -0.55100
O214        O  0.24017862  0.09517623  0.47290812    -0.53500
O215        O  0.11496337  0.96415951  0.55088396    -0.53500
O216        O  0.29190442  0.11600728  0.53537231    -0.52700
C217        C  0.36528009  0.06152052  0.57339421    -0.12500
C218        C  0.41606597  0.12584135  0.57282370    -0.27700
H219        H  0.35726017  0.02128061  0.59177544     0.16500
H220        H  0.42105439  0.16649951  0.55431806     0.17100
C221        C  0.99194431  0.08983148  0.59588547    -0.12500
C222        C  0.03256740  0.02198489  0.58460752    -0.27700
H223        H  0.98676420  0.15472081  0.58508116     0.16500
H224        H  0.04062322  0.95858126  0.59599380     0.17100
C225        C  0.12129776  0.84955737  0.45308907    -0.12500
C226        C  0.05644095  0.86506421  0.44047921    -0.27700
H227        H  0.16707648  0.82061910  0.44137240     0.16500
H228        H  0.01171123  0.89674924  0.45211657     0.17100
C229        C  0.16272078  0.85441946  0.34926959    -0.12500
C230        C  0.21570215  0.90484808  0.33796264    -0.27700
H231        H  0.16019535  0.78411970  0.34314608     0.16500
H232        H  0.22447299  0.97325760  0.34497899     0.17100
C233        C  0.51685009  0.60151167  0.34607178    -0.12500
C234        C  0.46163600  0.59054592  0.32845272    -0.27700
H235        H  0.53961939  0.66822176  0.34825317     0.16500
H236        H  0.43680947  0.52524544  0.32672542     0.17100
C237        C  0.49893620  0.75659672  0.20651176    -0.12500
C238        C  0.48187508  0.68841641  0.18981777    -0.27700
H239        H  0.52526340  0.81594490  0.19828190     0.16500
H240        H  0.45403995  0.63083298  0.19847696     0.17100
C241        C  0.36007956  0.63565293  0.07789029    -0.12500
C242        C  0.40148120  0.60231015  0.09871104    -0.27700
H243        H  0.34594795  0.70791465  0.07684650     0.16500
H244        H  0.41493609  0.52986482  0.10001216     0.17100
C245        C  0.06396685  0.40878240  0.09032522    -0.12500
C246        C  0.11659680  0.35841834  0.07755266    -0.27700
H247        H  0.05863085  0.48040227  0.08511666     0.16500
H248        H  0.12593694  0.28707253  0.08279287     0.17100
C249        C  0.12727352  0.95317304  0.09666115    -0.12500
C250        C  0.11346258  0.91111714  0.07325444    -0.27700
H251        H  0.11737844  0.02630959  0.09824278     0.16500
H252        H  0.12320495  0.83785529  0.07206790     0.17100
C253        C  0.25607731  0.99299844  0.19883345    -0.12500
C254        C  0.25916679  0.90304172  0.20422694    -0.27700
H255        H  0.26767921  0.03929788  0.21525966     0.16500
H256        H  0.25081853  0.85444344  0.18815692     0.17100
C257        C  0.27453825  0.00914540  0.09967086    -0.12500
C258        C  0.29049033  0.06372339  0.07846628    -0.27700
H259        H  0.28289987  0.93583302  0.09806012     0.16500
H260        H  0.28160845  0.13694693  0.08026935     0.17100
C261        C  0.02365146  0.96937069  0.68836748    -0.12500
C262        C  0.01497148  0.87884694  0.68813141    -0.27700
H263        H  0.54377440  0.99734625  0.67589476     0.16500
H264        H  0.99268463  0.84756052  0.67024198     0.17100
C265        C  0.31553134  0.82462400  0.93296644    -0.12500
C266        C  0.38242526  0.81440212  0.94418964    -0.27700
H267        H  0.27039554  0.85022386  0.94563365     0.16500
H268        H  0.42877344  0.79409836  0.93130096     0.17100
C269        C  0.43434266  0.76839498  0.82857857    -0.12500
C270        C  0.38401151  0.83453718  0.83450972    -0.27700
H271        H  0.44483008  0.71186004  0.84258067     0.16500
H272        H  0.37620101  0.88956582  0.81968227     0.17100
C273        C  0.33322656  0.62559464  0.92731146    -0.12500
C274        C  0.36850279  0.56950357  0.94518007    -0.27700
H275        H  0.28171410  0.65863803  0.93341516     0.16500
H276        H  0.41765691  0.53162931  0.93867817     0.17100
C277        C  0.26680883  0.68937605  0.83353522    -0.12500
C278        C  0.25779661  0.64481681  0.81006433    -0.27700
H279        H  0.23403211  0.75096550  0.83750903     0.16500
H280        H  0.28907418  0.58200891  0.80637382     0.17100
C281        C  0.56069264  0.40400721  0.45038823    -0.12500
C282        C  0.03321882  0.66675205  0.43022080    -0.27700
H283        H  0.09687708  0.54977885  0.43968211     0.16500
H284        H  0.57049008  0.54251893  0.44116783     0.17100
C285        C  0.18580067  0.51054035  0.69203411    -0.12500
C286        C  0.15472628  0.45137862  0.67520330    -0.27700
H287        H  0.23952293  0.53491994  0.68649620     0.16500
H288        H  0.10149932  0.42469100  0.68020025     0.17100
C289        C  0.10075007  0.38640761  0.58313120    -0.12500
C290        C  0.10431543  0.42442033  0.55822673    -0.27700
H291        H  0.05783482  0.33954375  0.58819973     0.16500
H292        H  0.14729137  0.47174314  0.55370880     0.17100
C293        C  0.24657410  0.27248521  0.58268167    -0.12500
C294        C  0.29278711  0.34095094  0.58491059    -0.27700
H295        H  0.23968644  0.24090689  0.56310193     0.16500
H296        H  0.29912916  0.37366162  0.60443871     0.17100
C297        C  0.09099148  0.05222962  0.18720539    -0.12500
C298        C  0.09691554  0.96134491  0.18932622    -0.27700
H299        H  0.10855368  0.08654920  0.16866544     0.16500
H300        H  0.07656179  0.92663091  0.20739783     0.17100
C301        C  0.85202067  0.36497623  0.18641706    -0.12500
C302        C  0.86330436  0.38398825  0.15968795    -0.27700
H303        H  0.79676038  0.37777093  0.19419096     0.16500
H304        H  0.81805242  0.41641500  0.14857522     0.17100
C305        C  0.24758953  0.43318584  0.43290960    -0.12500
C306        C  0.25292616  0.49966916  0.45159340    -0.27700
H307        H  0.27149092  0.36628208  0.43752716     0.16500
H308        H  0.23196318  0.56811482  0.44693528     0.17100
C309        C  0.28942576  0.35753846  0.33993931    -0.12500
C310        C  0.31463267  0.39476254  0.31654255    -0.27700
H311        H  0.30057696  0.28587590  0.34442589     0.16500
H312        H  0.30254851  0.46644487  0.31243209     0.17100
C313        C  0.14850990  0.27684617  0.43486344    -0.12500
C314        C  0.19812620  0.21133657  0.44194297    -0.27700
H315        H  0.10997914  0.30179738  0.45028615     0.16500
H316        H  0.23333582  0.18186780  0.42613056     0.17100
C317        C  0.12388996  0.34693003  0.33369874    -0.12500
C318        C  0.14340229  0.28623853  0.31431655    -0.27700
H319        H  0.08908433  0.40542823  0.32801491     0.16500
H320        H  0.17414387  0.22497753  0.32069588     0.17100
C321        C  0.48918189  0.17431709  0.66900469    -0.12500
C322        C  0.42704776  0.14978237  0.68127983    -0.27700
H323        H  0.52943277  0.20992865  0.68063206     0.16500
H324        H  0.38590383  0.11713111  0.66925141     0.17100
C325        C  0.18143167  0.23529138  0.67830148    -0.12500
C326        C  0.17769037  0.17009806  0.69782124    -0.27700
H327        H  0.20773924  0.29722777  0.68326988     0.16500
H328        H  0.15742532  0.10352838  0.69334672     0.17100
C329        C  0.09913654  0.39094332  0.93371603    -0.12500
C330        C  0.16037997  0.35892589  0.94617531    -0.27700
H331        H  0.06164729  0.43617696  0.94488367     0.16500
H332        H  0.20016391  0.31804427  0.93458696     0.17100
C333        C  0.18520987  0.32379241  0.84088305    -0.12500
C334        C  0.21400470  0.36419559  0.81859814    -0.27700
H335        H  0.19366951  0.25073378  0.84331828     0.16500
H336        H  0.21032314  0.43752993  0.81590929     0.17100
C337        C  0.10469326  0.17416889  0.93391695    -0.12500
C338        C  0.50010378  0.15429423  0.95118615    -0.27700
H339        H  0.14579732  0.13532001  0.94548871     0.16500
H340        H  0.45418487  0.18009276  0.93900372     0.17100
C341        C  0.48710515  0.14150080  0.84315127    -0.12500
C342        C  0.46121085  0.08293774  0.82496533    -0.27700
H343        H  0.00034305  0.30533835  0.84295773     0.16500
H344        H  0.46514925  0.01010037  0.82841815     0.17100
N345        N  0.54530433  0.16813889  0.88893901     0.00400
C346        C  0.56446922  0.11298057  0.91023683     0.03000
C347        C  0.11205717  0.08967517  0.89125667    -0.19900
C348        C  0.08464051  0.10396489  0.86560429    -0.20100
C349        C  0.52397593  0.11165935  0.86878002     0.02900
H350        H  0.12118473  0.02372751  0.90096658     0.16700
H351        H  0.07139250  0.05087083  0.85158290     0.16700
N352        N  0.55396743  0.26387176  0.88659363     0.00400
C353        C  0.52145850  0.32920109  0.90259378     0.03000
C354        C  0.51312748  0.40938717  0.88769338    -0.19900
C355        C  0.54648720  0.39568177  0.86292191    -0.20100
C356        C  0.57333175  0.30662451  0.86315654     0.02900
H357        H  0.49720075  0.47558597  0.89568859     0.16700
H358        H  0.55525434  0.44748667  0.84750275     0.16700
O359        O  0.81076049  0.35627876  0.72788647    -0.53900
C360        C  0.95461235  0.21570115  0.79803186     0.78700
O361        O  0.72695392  0.20788730  0.80050566    -0.55100
C362        C  0.74237317  0.34304037  0.72530417     0.78700
C363        C  0.83013559  0.08582821  0.73146586     0.81100
Cd364      Cd  0.82183594  0.23906911  0.76634039     1.37500
O365        O  0.93853846  0.29393632  0.78783021    -0.53900
O366        O  0.86517690  0.15754676  0.72678814    -0.52700
C367        C  0.72459068  0.28946222  0.80897307     0.81100
O368        O  0.79312656  0.08240102  0.75350590    -0.55100
O369        O  0.91290806  0.15213972  0.79216463    -0.53500
O370        O  0.71397224  0.28875257  0.74216728    -0.53500
O371        O  0.76916824  0.34416526  0.79850669    -0.52700
N372        N  0.76465960  0.15530828  0.37752700     0.00400
C373        C  0.79222101  0.08674458  0.39388643     0.03000
C374        C  0.78661349  0.00375094  0.38111859    -0.19900
C375        C  0.74954518  0.01991912  0.35743805    -0.20100
C376        C  0.73453795  0.11233797  0.35591844     0.02900
H377        H  0.79778607  0.93690043  0.38997371     0.16700
H378        H  0.73039948  0.96863201  0.34380210     0.16700
N379        N  0.79586938  0.24276615  0.37584403     0.00400
C380        C  0.81580574  0.29828261  0.39652373     0.03000
C381        C  0.84827500  0.37486237  0.38609644    -0.19900
C382        C  0.84877406  0.36775991  0.35842819    -0.20100
C383        C  0.81788929  0.28636682  0.35263323     0.02900
H384        H  0.87308903  0.42794259  0.39760682     0.16700
H385        H  0.87345563  0.41422103  0.34404363     0.16700
O386        O  0.54160501  0.40909032  0.23683497    -0.53900
C387        C  0.60250083  0.25562236  0.30938065     0.78700
O388        O  0.94086031  0.12841083  0.27978518    -0.55100
C389        C  0.49150470  0.40336376  0.21905336     0.78700
C390        C  0.52688789  0.13579477  0.22960740     0.81100
Cd391      Cd  0.49576955  0.28578027  0.26622248     1.37500
O392        O  0.59391697  0.33429764  0.29865625    -0.53900
O393        O  0.57046664  0.20001210  0.23248335    -0.52700
C394        C  0.90278834  0.19334149  0.29023475     0.81100
O395        O  0.46967642  0.13776958  0.24470673    -0.55100
O396        O  0.56395018  0.19401581  0.29974369    -0.53500
O397        O  0.44099924  0.34873933  0.22428746    -0.53500
O398        O  0.41453435  0.40210108  0.28575162    -0.52700
N399        N  0.69201525  0.47164130  0.63221543     0.00400
C400        C  0.68017523  0.41781629  0.65456945     0.03000
C401        C  0.66453851  0.33082831  0.64615433    -0.19900
C402        C  0.67426019  0.32860276  0.61850077    -0.20100
C403        C  0.69430539  0.41432774  0.61059550     0.02900
H404        H  0.65908049  0.27102213  0.65901066     0.16700
H405        H  0.67439385  0.26838130  0.60599169     0.16700
N406        N  0.67277205  0.56644229  0.63021125     0.00400
C407        C  0.68585686  0.63129125  0.64890336     0.03000
C408        C  0.66963917  0.71650076  0.63759473    -0.19900
C409        C  0.64127972  0.70356581  0.61214504    -0.20100
C410        C  0.64055308  0.61045103  0.60844873     0.02900
H411        H  0.66764640  0.78068877  0.64825087     0.16700
H412        H  0.61590851  0.75640306  0.59950912     0.16700
O413        O  0.88449999  0.33381517  0.47743869    -0.53900
C414        C  0.50812732  0.56153021  0.54972478     0.78700
O415        O  0.95006692  0.60109929  0.47875438    -0.55100
C416        C  0.83046342  0.37770738  0.46671001     0.78700
C417        C  0.81786530  0.49254751  0.55183745     0.81100
Cd418      Cd  0.91673799  0.46421574  0.50684604     1.37500
O419        O  0.51192038  0.47530173  0.54811852    -0.53900
O420        O  0.83797312  0.41483885  0.54299907    -0.52700
C421        C  0.00307656  0.55677683  0.46727940     0.81100
O422        O  0.84198064  0.56155373  0.53913077    -0.55100
O423        O  0.00299938  0.36344378  0.53365958    -0.53500
O424        O  0.81473864  0.45587738  0.47611126    -0.53500
O425        O  0.01336027  0.47415061  0.47422206    -0.52700
N426        N  0.79525773  0.83402225  0.88374522     0.00400
C427        C  0.75575610  0.85586094  0.90681906     0.03000
C428        C  0.72984499  0.94477932  0.90552960    -0.19900
C429        C  0.74813599  0.97733937  0.88018635    -0.20100
C430        C  0.78487433  0.90714524  0.86660950     0.02900
H431        H  0.69800330  0.98064396  0.92096913     0.16700
H432        H  0.72741068  0.04094053  0.87134215     0.16700
N433        N  0.86161200  0.77967985  0.88450481     0.00400
C434        C  0.90109221  0.76443963  0.90758530     0.03000
C435        C  0.94492590  0.68660901  0.90518636    -0.19900
C436        C  0.93473347  0.65541592  0.87921286    -0.20100
C437        C  0.88567467  0.71570568  0.86615370     0.02900
H438        H  0.98489062  0.65988452  0.91963384     0.16700
H439        H  0.96836026  0.60228698  0.86972485     0.16700
O440        O  0.55693407  0.93175585  0.72848587    -0.53900
C441        C  0.69659096  0.82268973  0.80243608     0.78700
O442        O  0.97826478  0.60706561  0.77932579    -0.55100
C443        C  0.50253107  0.89062907  0.71895169     0.78700
C444        C  0.67386621  0.70862402  0.72066091     0.81100
Cd445      Cd  0.58905848  0.80316912  0.76132313     1.37500
O446        O  0.67347800  0.89370080  0.78938785    -0.53900
O447        O  0.69083421  0.78525382  0.72977955    -0.52700
C448        C  0.96120967  0.67412716  0.79454496     0.81100
O449        O  0.62051437  0.66952522  0.73228131    -0.55100
O450        O  0.67415599  0.74670368  0.79475076    -0.53500
O451        O  0.48609078  0.81672995  0.73064722    -0.53500
O452        O  0.49747841  0.85524600  0.79459616    -0.52700
N453        N  0.71753436  0.03645352  0.14513483     0.00400
C454        C  0.75238981  0.05624417  0.16878112     0.03000
C455        C  0.80191985  0.12324421  0.16423337    -0.19900
C456        C  0.80163726  0.14151241  0.13679657    -0.20100
C457        C  0.75225000  0.08441724  0.12490951     0.02900
H458        H  0.84055371  0.14829017  0.17872898     0.16700
H459        H  0.84207009  0.18158154  0.12635379     0.16700
N460        N  0.64477021  0.00368824  0.14422629     0.00400
C461        C  0.59474817  0.00445205  0.16535124     0.03000
C462        C  0.53680078  0.95098609  0.15890786    -0.19900
C463        C  0.54998880  0.91831129  0.13334970    -0.20100
C464        C  0.61494699  0.95380473  0.12405259     0.02900
H465        H  0.48581851  0.94451194  0.16996375     0.16700
H466        H  0.51019088  0.88436492  0.12121536     0.16700
O467        O  0.85324424  0.99455518  0.04652562    -0.53900
C468        C  0.01498147  0.14457164  0.97112465     0.78700
O469        O  0.51548140  0.86687761  0.04299492    -0.52700
C470        C  0.84522317  0.07641264  0.05406555     0.78700
C471        C  0.93136489  0.87885664  0.97647862     0.81100
Cd472      Cd  0.96032880  0.02312090  0.01389062     1.37500
O473        O  0.94787376  0.14227372  0.97760531    -0.53900
O474        O  0.89692647  0.95516283  0.97497654    -0.52700
C475        C  0.55404434  0.92725208  0.05348135     0.81100
O476        O  0.97303108  0.86645508  0.99665764    -0.55100
O477        O  0.05881969  0.09935311  0.98643839    -0.53500
O478        O  0.88453634  0.13277553  0.04155868    -0.53500
O479        O  0.05363020  0.03973546  0.05031463    -0.52700
N480        N  0.95438384  0.41658722  0.12229387     0.00400
C481        C  0.93109878  0.36517623  0.14374358     0.03000
C482        C  0.63570825  0.48552248  0.14695943    -0.19900
C483        C  0.64114143  0.51440125  0.12045828    -0.20100
C484        C  0.57946597  0.56857731  0.11524105     0.02900
H485        H  0.67533954  0.44250866  0.15780764     0.16700
H486        H  0.68631102  0.49946355  0.10657750     0.16700
N487        N  0.93099438  0.50757517  0.11585754     0.00400
C488        C  0.93563440  0.57815996  0.13332336     0.03000
C489        C  0.93865986  0.65983405  0.11922436    -0.19900
C490        C  0.93577298  0.63955014  0.09207962    -0.20100
C491        C  0.93005242  0.54633001  0.09049619     0.02900
H492        H  0.93682566  0.72740006  0.12782071     0.16700
H493        H  0.93285433  0.68821347  0.07534674     0.16700
O494        O  0.64367992  0.61891243  0.03612606    -0.53900
C495        C  0.73299974  0.64699181  0.95530210     0.78700
O496        O  0.75143316  0.41601918  0.03396848    -0.55100
C497        C  0.59053288  0.56803029  0.04131529     0.78700
C498        C  0.63368948  0.38910109  0.96307287     0.81100
Cd499      Cd  0.69337091  0.52014714  0.99882960     1.37500
O500        O  0.69084288  0.67304260  0.97464343    -0.53900
O501        O  0.59397964  0.45165654  0.97378334    -0.52700
C502        C  0.80622363  0.46450423  0.03760804     0.81100
O503        O  0.69963117  0.38148343  0.97092616    -0.55100
O504        O  0.75844827  0.56615896  0.95697336    -0.53500
O505        O  0.57915357  0.50593877  0.02440946    -0.53500
O506        O  0.81313175  0.53078836  0.02117683    -0.52700
N507        N  0.58797159  0.53829870  0.38624801     0.00400
C508        C  0.57745821  0.46566202  0.40332252     0.03000
C509        C  0.06522547  0.59270145  0.38646767    -0.19900
C510        C  0.05315732  0.61804395  0.35995950    -0.20100
C511        C  0.54266310  0.52649286  0.36475992     0.02900
H512        H  0.06410962  0.52313284  0.39394766     0.16700
H513        H  0.04297810  0.57205347  0.34344458     0.16700
N514        N  0.65679606  0.58064190  0.38383776     0.00400
C515        C  0.70151316  0.59515089  0.40539868     0.03000
C516        C  0.77430245  0.58789489  0.39737401    -0.19900
C517        C  0.77500206  0.57098986  0.37009916    -0.20100
C518        C  0.70292362  0.56744382  0.36201311     0.02900
H519        H  0.82188272  0.60412113  0.40914271     0.16700
H520        H  0.82290545  0.57277334  0.35696300     0.16700
O521        O  0.80770202  0.87492185  0.23668022    -0.53900
C522        C  0.95743772  0.73741182  0.29058102     0.78700
O523        O  0.79396007  0.56999290  0.27175505    -0.55100
C524        C  0.76434222  0.85067473  0.21819295     0.78700
C525        C  0.91698796  0.64432114  0.20708125     0.81100
Cd526      Cd  0.83888846  0.71573369  0.25295435     1.37500
O527        O  0.90183938  0.79184346  0.29181058    -0.53900
O528        O  0.94117293  0.70876636  0.22084732    -0.52700
C529        C  0.75270063  0.60584084  0.28983282     0.81100
O530        O  0.85914216  0.60763907  0.21581859    -0.55100
O531        O  0.95921828  0.68126976  0.27129616    -0.53500
O532        O  0.74921078  0.76744553  0.21818521    -0.53500
O533        O  0.74432606  0.69178268  0.28880366    -0.52700
N534        N  0.97040724  0.01137911  0.64136094     0.00400
C535        C  0.00564865  0.03222414  0.66487891     0.03000
C536        C  0.44500187  0.87554149  0.63589514    -0.19900
C537        C  0.46494721  0.87230561  0.60892142    -0.20100
C538        C  0.49067041  0.95697043  0.60225025     0.02900
H539        H  0.43328798  0.81611610  0.64820228     0.16700
H540        H  0.46871680  0.81130000  0.59677651     0.16700
N541        N  0.90591398  0.95979144  0.64270820     0.00400
C542        C  0.86226668  0.95368148  0.66522213     0.03000
C543        C  0.82027171  0.87815269  0.66398418    -0.19900
C544        C  0.83686906  0.83790015  0.63940903    -0.20100
C545        C  0.88768883  0.89124425  0.62599625     0.02900
H546        H  0.77757314  0.85949909  0.67812820     0.16700
H547        H  0.80734788  0.78276861  0.63085222     0.16700
O548        O  0.65617641  0.96608488  0.53824182    -0.53900
C549        C  0.79887230  0.98605027  0.46453102     0.78700
O550        O  0.79880877  0.77919012  0.54242298    -0.55100
C551        C  0.60278332  0.91363252  0.53727376     0.78700
C552        C  0.72163493  0.71844114  0.47258213     0.81100
Cd553      Cd  0.73703866  0.87371451  0.50709464     1.37500
O554        O  0.73562454  0.00518000  0.47421034    -0.53900
O555        O  0.67651823  0.78581411  0.47133082    -0.52700
C556        C  0.82983734  0.84385236  0.55399158     0.81100
O557        O  0.76946496  0.71975915  0.49112120    -0.55100
O558        O  0.83510252  0.92261830  0.47633613    -0.53500
O559        O  0.60858676  0.84919761  0.52047156    -0.53500
O560        O  0.82197697  0.92185268  0.54291926    -0.52700
C561        C  0.86760748  0.82882888  0.58026876    -0.12500
C562        C  0.88843308  0.89835581  0.59576792    -0.27700
H563        H  0.86626602  0.76068840  0.58904692     0.16500
H564        H  0.88901763  0.96617618  0.58689157     0.17100
C565        C  0.53857959  0.97454117  0.57818920    -0.12500
C566        C  0.53941707  0.92069434  0.55614717    -0.27700
H567        H  0.57953794  0.02583102  0.58014719     0.16500
H568        H  0.49763226  0.87057484  0.55399961     0.17100
C569        C  0.72399919  0.64555865  0.45217124    -0.12500
C570        C  0.67899309  0.64435836  0.43055580    -0.27700
H571        H  0.77155196  0.59940381  0.45276393     0.16500
H572        H  0.63030677  0.68894693  0.42984309     0.17100
C573        C  0.68473866  0.58956867  0.33322319    -0.12500
C574        C  0.72422090  0.55090814  0.31285047    -0.27700
H575        H  0.65718779  0.65515537  0.32958667     0.16500
H576        H  0.75154074  0.48497615  0.31647433     0.17100
C577        C  0.00755722  0.76216191  0.33676798    -0.12500
C578        C  0.01573057  0.73096660  0.31122617    -0.27700
H579        H  0.96453815  0.81245181  0.34161249     0.16500
H580        H  0.06018616  0.68176659  0.30703622     0.17100
C581        C  0.95220236  0.61884228  0.18109628    -0.12500
C582        C  0.91483256  0.57537453  0.16227437    -0.27700
H583        H  0.00465322  0.64721324  0.17579558     0.16500
H584        H  0.85995039  0.55430826  0.16711870     0.17100
C585        C  0.85440215  0.45155916  0.06166787    -0.12500
C586        C  0.91292625  0.50332904  0.06430842    -0.27700
H587        H  0.83199923  0.41737323  0.07947916     0.16500
H588        H  0.93301291  0.53839222  0.04624218     0.17100
C589        C  0.57181539  0.61753009  0.08887233    -0.12500
C590        C  0.54962513  0.57017491  0.06737099    -0.27700
H591        H  0.60985879  0.67156552  0.08532603     0.16500
H592        H  0.51597861  0.51178098  0.07111963     0.17100
C593        C  0.62312977  0.96933661  0.09425628    -0.12500
C594        C  0.60170179  0.90482689  0.07699200    -0.27700
H595        H  0.62350026  0.03986603  0.08738654     0.16500
H596        H  0.60074765  0.83493318  0.08437924     0.17100
C597        C  0.75520263  0.00066548  0.19449122    -0.12500
C598        C  0.73726294  0.91280535  0.19605546    -0.27700
H599        H  0.78406569  0.02917076  0.21151888     0.16500
H600        H  0.71077709  0.88195964  0.17890441     0.17100
C601        C  0.76940711  0.05066570  0.09665506    -0.12500
C602        C  0.79743756  0.10674526  0.07733929    -0.27700
H603        H  0.77176240  0.97762477  0.09347078     0.16500
H604        H  0.79516454  0.17954442  0.08105880     0.17100
C605        C  0.49081372  0.96719956  0.67346159    -0.12500
C606        C  0.46103341  0.92091485  0.69444313    -0.27700
H607        H  0.04614240  0.99932064  0.70649682     0.16500
H608        H  0.40893034  0.88919071  0.69134036     0.17100
C609        C  0.90393562  0.83068242  0.93013292    -0.12500
C610        C  0.92619282  0.80859961  0.95541602    -0.27700
H611        H  0.88691026  0.90076171  0.92560263     0.16500
H612        H  0.94512556  0.73948705  0.96027080     0.17100
C613        C  0.91333904  0.66349964  0.81905739    -0.12500
C614        C  0.89573002  0.73259521  0.83625470    -0.27700
H615        H  0.90329977  0.59413894  0.82560782     0.16500
H616        H  0.90447723  0.80221415  0.82971952     0.17100
C617        C  0.73962090  0.79580182  0.93085590    -0.12500
C618        C  0.75114448  0.70499446  0.93136028    -0.27700
H619        H  0.71497276  0.82823543  0.94868756     0.16500
H620        H  0.77464621  0.67109628  0.91362456     0.17100
C621        C  0.77084697  0.90026391  0.83696252    -0.12500
C622        C  0.74208201  0.82486099  0.82712078    -0.27700
H623        H  0.76690161  0.96288648  0.82497184     0.16500
H624        H  0.74298259  0.76338721  0.83965148     0.17100
C625        C  0.05097939  0.59406444  0.44591067    -0.12500
C626        C  0.57673975  0.47388836  0.43348120    -0.27700
H627        H  0.56600701  0.33436178  0.44327849     0.16500
H628        H  0.98627502  0.71047659  0.43560819     0.17100
C629        C  0.71110209  0.67371477  0.69588619    -0.12500
C630        C  0.67774455  0.61861317  0.67873934    -0.27700
H631        H  0.75738828  0.71098247  0.68831095     0.16500
H632        H  0.63060169  0.58159627  0.68578402     0.17100
C633        C  0.59369471  0.56605162  0.58806124    -0.12500
C634        C  0.55823273  0.61035525  0.56755545    -0.27700
H635        H  0.58246504  0.49486020  0.59125807     0.16500
H636        H  0.56347463  0.68299755  0.56435490     0.17100
C637        C  0.72807409  0.43018186  0.58336885    -0.12500
C638        C  0.77078815  0.49983080  0.57648899    -0.27700
H639        H  0.72401506  0.37467123  0.56904126     0.16500
H640        H  0.77662151  0.55724581  0.58989382     0.17100
C641        C  0.54054551  0.06340434  0.20914711    -0.12500
C642        C  0.59133370  0.06910368  0.18883763    -0.27700
H643        H  0.50416409  0.00671092  0.21005097     0.16500
H644        H  0.62669679  0.12689968  0.18826681     0.17100
C645        C  0.49384552  0.45215932  0.19247506    -0.12500
C646        C  0.55003520  0.50434924  0.18577845    -0.27700
H647        H  0.45439923  0.43542054  0.17700562     0.16500
H648        H  0.59166147  0.51586577  0.20093834     0.17100
C649        C  0.81805253  0.28067909  0.42620838    -0.12500
C650        C  0.79061918  0.34612879  0.44268788    -0.27700
H651        H  0.86237747  0.23579824  0.43349084     0.16500
H652        H  0.74891160  0.39352467  0.43455800     0.17100
C653        C  0.81929323  0.25371952  0.32446382    -0.12500
C654        C  0.86409516  0.18460716  0.31654197    -0.27700
H655        H  0.80121803  0.30418794  0.30933933     0.16500
H656        H  0.88500174  0.13470235  0.33131479     0.17100
C657        C  0.78682127  0.08692010  0.42403752    -0.12500
C658        C  0.82699238  0.02690996  0.43904359    -0.27700
H659        H  0.73933275  0.12197622  0.43307575     0.16500
H660        H  0.87481319  0.99308179  0.42977085     0.17100
C661        C  0.68356311  0.14947859  0.33454265    -0.12500
C662        C  0.65471119  0.23479449  0.33189484    -0.27700
H663        H  0.66741390  0.09977771  0.31968017     0.16500
H664        H  0.66950324  0.28836666  0.34561556     0.17100
C665        C  0.85492065  0.02528459  0.68610297    -0.12500
C666        C  0.83175807  0.01068354  0.71179077    -0.27700
H667        H  0.87102739  0.09303390  0.68005976     0.16500
H668        H  0.81376530  0.94416297  0.71829120     0.17100
C669        C  0.72016579  0.42499685  0.68080024    -0.12500
C670        C  0.69576342  0.38058358  0.70299989    -0.27700
H671        H  0.77496776  0.45140160  0.68038387     0.16500
H672        H  0.64017197  0.35630235  0.70266296     0.17100
C673        C  0.53749277  0.34161737  0.93176053    -0.12500
C674        C  0.60716013  0.33392429  0.94051871    -0.27700
H675        H  0.49730403  0.38083288  0.94364691     0.16500
H676        H  0.64835756  0.29850592  0.92806623     0.17100
C677        C  0.62640727  0.26809966  0.84305784    -0.12500
C678        C  0.67149521  0.32256734  0.82938106    -0.27700
H679        H  0.63233189  0.19487398  0.84070157     0.16500
H680        H  0.66996433  0.39526561  0.83319687     0.17100
C681        C  0.56515691  0.13734255  0.93901334    -0.12500
C682        C  0.03826765  0.19051704  0.94543548    -0.27700
H683        H  0.60974573  0.10659692  0.95087159     0.16500
H684        H  0.99532711  0.22303243  0.93313587     0.17100
C685        C  0.02884979  0.24029960  0.83954023    -0.12500
C686        C  0.01746904  0.19509996  0.81621131    -0.27700
H687        H  0.47663339  0.21371471  0.83966439     0.16500
H688        H  0.04486889  0.12927573  0.81317444     0.17100
loop_ 
_geom_bond_atom_site_label_1 
_geom_bond_atom_site_label_2 
_geom_bond_distance 
_geom_bond_site_symmetry_2 
_ccdc_geom_bond_type 
N1            C5   1.367       .  A
N1            C2   1.366       .  A
N1            N8   1.426       .  S
C2          C337   1.485       .  S
C2          C347   1.382       .  A
C3            C4   1.367       .  A
C3          C346   1.380       .  A
C3            H6   1.083   1_545  S
C4          C349   1.385       .  A
C4            H7   1.081   1_545  S
C5          C685   1.501       .  S
C5          C348   1.384       .  A
N8           C12   1.365       .  A
N8            C9   1.362       .  A
C9          C329   1.481       .  S
C9           C10   1.384       .  A
C10          C11   1.374       .  A
C10          H13   1.083       .  S
C11          C12   1.382       .  A
C11          H14   1.081       .  S
C12         C333   1.490       .  S
O15          C18   1.271       .  A
O15         Cd20   2.347       .  S
C16         C342   1.467       .  S
C16          O25   1.274       .  A
C16          O21   1.271       .  A
O17          C23   1.271       .  A
O17         Cd20   2.403       .  S
C18         C326   1.469       .  S
C18          O26   1.278       .  A
C19         C322   1.476       .  S
C19          O24   1.267       .  A
C19          O22   1.280       .  A
Cd20         O27   2.478       .  S
Cd20         O26   2.438       .  S
Cd20         O25   2.434       .  S
Cd20         O21   2.395       .  S
Cd20         O24   2.396       .  S
Cd20         O22   2.503       .  S
C23         C334   1.480       .  S
C23          O27   1.277       .  A
N28          C32   1.375       .  A
N28          C29   1.374       .  A
N28          N35   1.429       .  S
C29         C313   1.483       .  S
C29          C30   1.380       .  A
C30          C31   1.365       .  A
C30          H33   1.083       .  S
C31          C32   1.379       .  A
C31          H34   1.083       .  S
C32         C317   1.489       .  S
N35          C39   1.365       .  A
N35          C36   1.370       .  A
C36         C305   1.490       .  S
C36          C37   1.385       .  A
C37          C38   1.366       .  A
C37          H40   1.082       .  S
C38          C39   1.384       .  A
C38          H41   1.081       .  S
C39         C309   1.497       .  S
O42          C45   1.273       .  A
O42         Cd47   2.546       .  S
C43         C318   1.488       .  S
C43          O52   1.263       .  A
C43          O48   1.272       .  A
O44          C50   1.271       .  A
O44        Cd391   2.551       .  S
C45         C301   1.485       .  S
C45          O53   1.264       .  A
C46         C297   1.459       .  S
C46          O51   1.271       .  A
C46          O49   1.265       .  A
Cd47         O54   2.365       .  S
Cd47         O53   2.441       .  S
Cd47         O52   2.443   1_655  S
Cd47         O48   2.540   1_655  S
Cd47         O51   2.449   1_655  S
Cd47         O49   2.392   1_655  S
Cd47        O388   2.488       .  S
C50         C310   1.481       .  S
C50         O398   1.263       .  A
O54         C394   1.267       .  A
N55          C59   1.365       .  A
N55          C56   1.360       .  A
N55          N62   1.429       .  S
C56         C325   1.476       .  S
C56          C57   1.390       .  A
C57          C58   1.372       .  A
C57          H60   1.081       .  S
C58          C59   1.376       .  A
C58          H61   1.080       .  S
C59         C293   1.486       .  S
N62          C66   1.358       .  A
N62          C63   1.369       .  A
C63         C286   1.496       .  S
C63          C64   1.391       .  A
C64          C65   1.364       .  A
C64          H67   1.083       .  S
C65          C66   1.378       .  A
C65          H68   1.082       .  S
C66         C289   1.484       .  S
O69          C72   1.266       .  A
O69         Cd74   2.435       .  S
C70         C290   1.462       .  S
C70          O75   1.264       .  A
C70         O423   1.275       .  A
O71          C77   1.267       .  A
O71         Cd74   2.401       .  S
C72         C306   1.483       .  S
C72          O80   1.274       .  A
C73         C294   1.474       .  S
C73          O78   1.266       .  A
C73          O76   1.272       .  A
Cd74         O81   2.487       .  S
Cd74         O80   2.495       .  S
Cd74         O79   2.483       .  S
Cd74         O78   2.441       .  S
Cd74         O76   2.484       .  S
Cd74        O419   2.423       .  S
O75        Cd418   2.370   1_455  S
C77         C281   1.480       .  S
C77          O81   1.275       .  A
O79         C414   1.274       .  A
N82          C86   1.364       .  A
N82          C83   1.367       .  A
N82          N89   1.428       .  S
C83         C273   1.481       .  S
C83          C84   1.384       .  A
C84          C85   1.369       .  A
C84          H87   1.083       .  S
C85          C86   1.385       .  A
C85          H88   1.081       .  S
C86         C277   1.496       .  S
N89          C93   1.371       .  A
N89          C90   1.370       .  A
C90         C265   1.482       .  S
C90          C91   1.380       .  A
C91          C92   1.365       .  A
C91          H94   1.083       .  S
C92          C93   1.378       .  A
C92          H95   1.083       .  S
C93         C270   1.494       .  S
O96          C99   1.273       .  A
O96        Cd101   2.519       .  S
C97         C278   1.473       .  S
C97         O106   1.263       .  A
C97         O102   1.273       .  A
O98         C104   1.274       .  A
O98        Cd445   2.499       .  S
C99         C262   1.486       .  S
C99         O107   1.265       .  A
C100        C285   1.484       .  S
C100        O105   1.275       .  A
C100        O103   1.266       .  A
Cd101       O108   2.498   1_455  S
Cd101       O107   2.458       .  S
Cd101       O106   2.408       .  S
Cd101       O102   2.530       .  S
Cd101       O105   2.544       .  S
Cd101       O103   2.425       .  S
Cd101       O442   2.504   1_455  S
C104        C269   1.487       .  S
C104        O452   1.271       .  A
O108        C448   1.266       .  A
N109        C113   1.363       .  A
N109        C110   1.369       .  A
N109        N116   1.431   1_545  S
C110        C253   1.486   1_545  S
C110        C111   1.379       .  A
C111        C112   1.368       .  A
C111        H114   1.083       .  S
C112        C113   1.384       .  A
C112        H115   1.083       .  S
C113        C257   1.479       .  S
N116        C120   1.360       .  A
N116        C117   1.361       .  A
C117        C298   1.477       .  S
C117        C118   1.376       .  A
C118        C119   1.373       .  A
C118        H121   1.082       .  S
C119        C120   1.388       .  A
C119        H122   1.082       .  S
C120        C249   1.485       .  S
O123        C126   1.268   1_565  A
O123       Cd128   2.464       .  S
C124        C338   1.463       .  S
C124        O133   1.266       .  A
C124        O129   1.265       .  A
O125        C131   1.261       .  A
O125       Cd472   2.421   1_465  S
C126        C258   1.470       .  S
C126        O134   1.264       .  A
C127        C266   1.484       .  S
C127        O132   1.265       .  A
C127        O130   1.266       .  A
Cd128       O135   2.478   1_565  S
Cd128       O134   2.444   1_565  S
Cd128       O133   2.413   1_564  S
Cd128       O129   2.442   1_564  S
Cd128       O132   2.486   1_554  S
Cd128       O130   2.491   1_554  S
Cd128       O469   2.462       .  S
C131        C250   1.472       .  S
C131        O479   1.270   1_565  A
O135        C475   1.266   1_545  A
N136        C137   1.368       .  A
N136        C484   1.365       .  A
N136        N143   1.423       .  S
C137        C646   1.473       .  S
C137        C482   1.379       .  A
C138        C139   1.378   1_655  A
C138        C481   1.382       .  A
C138        H141   1.082       .  S
C139        C140   1.388       .  A
C139        H142   1.082       .  S
C140        N480   1.362   1_455  A
C140        C245   1.490       .  S
N143        C147   1.365       .  A
N143        C144   1.365       .  A
C144        C238   1.477       .  S
C144        C145   1.383       .  A
C145        C146   1.370       .  A
C145        H148   1.083       .  S
C146        C147   1.385       .  A
C146        H149   1.081       .  S
C147        C242   1.495       .  S
O150        C153   1.278       .  A
O150       Cd155   2.410       .  S
C151        C274   1.481       .  S
C151        O160   1.280       .  A
C151        O156   1.279       .  A
O152        C158   1.278       .  A
O152       Cd155   2.474       .  S
C153        C246   1.478       .  S
C153        O161   1.278       .  A
C154        C330   1.480       .  S
C154        O159   1.279       .  A
C154        O157   1.280       .  A
Cd155       O162   2.416       .  S
Cd155       O161   2.431       .  S
Cd155       O160   2.431   1_554  S
Cd155       O156   2.415   1_554  S
Cd155       O159   2.422   1_554  S
Cd155       O157   2.441   1_554  S
C158        C241   1.482       .  S
C158        O162   1.277       .  A
N163        C167   1.361       .  A
N163        C164   1.361       .  A
N163        N170   1.425       .  S
C164        C282   1.485       .  S
C164        C509   1.391       .  A
C165        C166   1.366       .  A
C165        C508   1.384       .  A
C165        H168   1.082       .  S
C166        C511   1.387       .  A
C166        H169   1.080       .  S
C167        C577   1.488       .  S
C167        C510   1.381       .  A
N170        C174   1.367       .  A
N170        C171   1.362       .  A
C171        C226   1.479       .  S
C171        C172   1.383       .  A
C172        C173   1.370       .  A
C172        H175   1.083   1_565  S
C173        C174   1.383       .  A
C173        H176   1.081   1_565  S
C174        C229   1.495       .  S
O177        C180   1.276       .  A
O177       Cd182   2.402       .  S
C178        C234   1.472       .  S
C178        O187   1.276       .  A
C178        O183   1.277       .  A
O179        C185   1.274       .  A
O179       Cd182   2.415       .  S
C180        C254   1.480       .  S
C180        O188   1.278       .  A
C181        C237   1.480       .  S
C181        O186   1.275       .  A
C181        O184   1.282       .  A
Cd182       O189   2.446       .  S
Cd182       O188   2.451       .  S
Cd182       O187   2.391       .  S
Cd182       O183   2.449       .  S
Cd182       O186   2.364       .  S
Cd182       O184   2.458       .  S
C185        C230   1.479       .  S
C185        O189   1.279       .  A
N190        C191   1.366   1_545  A
N190        C538   1.361   1_545  A
N190        N197   1.429       .  S
C191        C605   1.494       .  S
C191        C536   1.389       .  A
C192        C193   1.368   1_455  A
C192        C535   1.375       .  A
C192        H195   1.078       .  S
C193        C194   1.381       .  A
C193        H196   1.083   1_655  S
C194        N534   1.367       .  A
C194        C221   1.490       .  S
N197        C201   1.373       .  A
N197        C198   1.371       .  A
C198        C321   1.485       .  S
C198        C199   1.380       .  A
C199        C200   1.370       .  A
C199        H202   1.083       .  S
C200        C201   1.379       .  A
C200        H203   1.082       .  S
C201        C218   1.501       .  S
O204        C207   1.275       .  A
O204       Cd209   2.540       .  S
C205        C314   1.489       .  S
C205        O214   1.265       .  A
C205        O210   1.275       .  A
O206        C212   1.266   1_565  A
O206       Cd209   2.509   1_565  S
C207        C222   1.485       .  S
C207        O215   1.263   1_545  A
C208        C225   1.486       .  S
C208        O213   1.272       .  A
C208        O211   1.265       .  A
Cd209       O216   2.512       .  S
Cd209       O215   2.430   1_545  S
Cd209       O214   2.450       .  S
Cd209       O210   2.527       .  S
Cd209       O213   2.500   1_545  S
Cd209       O211   2.456   1_545  S
C212        C217   1.490       .  S
C212        O216   1.266       .  A
C217        C218   1.347       .  D
C217        H219   1.084       .  S
C218        H220   1.086       .  S
C221        C222   1.343   1_655  D
C221        H223   1.087       .  S
C222        H224   1.087   1_545  S
C225        C226   1.352       .  D
C225        H227   1.087       .  S
C226        H228   1.087       .  S
C229        C230   1.351       .  D
C229        H231   1.082       .  S
C230        H232   1.084       .  S
C233        C511   1.491       .  S
C233        C234   1.349       .  D
C233        H235   1.085       .  S
C234        H236   1.080       .  S
C237        C238   1.348       .  D
C237        H239   1.083       .  S
C238        H240   1.083       .  S
C241        C242   1.353       .  D
C241        H243   1.085       .  S
C242        H244   1.085       .  S
C245        C246   1.347       .  D
C245        H247   1.081       .  S
C246        H248   1.084       .  S
C249        C250   1.340       .  D
C249        H251   1.087   1_565  S
C250        H252   1.087       .  S
C253        C254   1.344       .  D
C253        H255   1.088   1_565  S
C254        H256   1.085       .  S
C257        C258   1.342       .  D
C257        H259   1.086   1_545  S
C258        H260   1.087       .  S
C261        C535   1.499   1_565  S
C261        C262   1.345       .  D
C261        H607   1.087       .  S
C262        H264   1.084   1_455  S
H263        C605   1.086       .  S
C265        C266   1.347       .  D
C265        H267   1.087       .  S
C266        H268   1.087       .  S
C269        C270   1.346       .  D
C269        H271   1.084       .  S
C270        H272   1.088       .  S
C273        C274   1.348       .  D
C273        H275   1.084       .  S
C274        H276   1.086       .  S
C277        C278   1.345       .  D
C277        H279   1.086       .  S
C278        H280   1.084       .  S
C281        C626   1.351       .  D
C281        H627   1.086       .  S
C282        C625   1.341       .  D
C282        H628   1.085   1_455  S
H283        C625   1.086       .  S
H284        C626   1.083       .  S
C285        C286   1.349       .  D
C285        H287   1.087       .  S
C286        H288   1.086       .  S
C289        C290   1.339       .  D
C289        H291   1.087       .  S
C290        H292   1.087       .  S
C293        C294   1.342       .  D
C293        H295   1.082       .  S
C294        H296   1.085       .  S
C297        C298   1.339   1_545  D
C297        H299   1.086       .  S
C298        H300   1.087       .  S
C301        C302   1.353       .  D
C301        H303   1.086       .  S
C302        C481   1.478       .  S
C302        H304   1.086       .  S
C305        C306   1.354       .  D
C305        H307   1.084       .  S
C306        H308   1.086       .  S
C309        C310   1.350       .  D
C309        H311   1.086       .  S
C310        H312   1.085       .  S
C313        C314   1.343       .  D
C313        H315   1.086       .  S
C314        H316   1.087       .  S
C317        C318   1.348       .  D
C317        H319   1.086       .  S
C318        H320   1.088       .  S
C321        C322   1.339       .  D
C321        H323   1.087       .  S
C322        H324   1.087       .  S
C325        C326   1.350       .  D
C325        H327   1.076       .  S
C326        H328   1.084       .  S
C329        C330   1.346       .  D
C329        H331   1.086       .  S
C330        H332   1.087       .  S
C333        C334   1.349       .  D
C333        H335   1.085       .  S
C334        H336   1.084       .  S
C337        C682   1.348       .  D
C337        H339   1.086       .  S
C338        C681   1.341       .  D
C338        H340   1.088       .  S
C341        C349   1.485       .  S
C341        C342   1.347       .  D
C341        H687   1.083       .  S
C342        H344   1.082       .  S
H343        C685   1.086       .  S
N345        C349   1.366       .  A
N345        C346   1.355       .  A
N345        N352   1.424       .  S
C346        C681   1.460       .  S
C347        C348   1.369       .  A
C347        H350   1.083       .  S
C348        H351   1.081       .  S
N352        C356   1.354       .  A
N352        C353   1.363       .  A
C353        C673   1.477       .  S
C353        C354   1.384       .  A
C354        C355   1.368       .  A
C354        H357   1.082       .  S
C355        C356   1.381       .  A
C355        H358   1.082       .  S
C356        C677   1.479       .  S
O359        C362   1.278       .  A
O359       Cd364   2.544       .  S
C360        C686   1.480   1_655  S
C360        O369   1.263       .  A
C360        O365   1.274       .  A
O361        C367   1.272       .  A
O361       Cd364   2.451       .  S
C362        C670   1.481       .  S
C362        O370   1.263       .  A
C363        C666   1.474       .  S
C363        O368   1.271       .  A
C363        O366   1.270       .  A
Cd364       O371   2.392       .  S
Cd364       O370   2.395       .  S
Cd364       O369   2.418       .  S
Cd364       O365   2.546       .  S
Cd364       O368   2.469       .  S
Cd364       O366   2.405       .  S
C367        C678   1.463       .  S
C367        O371   1.266       .  A
N372        C376   1.369       .  A
N372        C373   1.365       .  A
N372        N379   1.426       .  S
C373        C657   1.481       .  S
C373        C374   1.385       .  A
C374        C375   1.363       .  A
C374        H377   1.083   1_545  S
C375        C376   1.377       .  A
C375        H378   1.083   1_545  S
C376        C661   1.493       .  S
N379        C383   1.364       .  A
N379        C380   1.369       .  A
C380        C649   1.476       .  S
C380        C381   1.381       .  A
C381        C382   1.362       .  A
C381        H384   1.083       .  S
C382        C383   1.374       .  A
C382        H385   1.083       .  S
C383        C653   1.467       .  S
O386        C389   1.275       .  A
O386       Cd391   2.467       .  S
C387        C662   1.487       .  S
C387        O396   1.265       .  A
C387        O392   1.270       .  A
O388        C394   1.270       .  A
C389        C645   1.481       .  S
C389        O397   1.267       .  A
C390        C641   1.484       .  S
C390        O395   1.275       .  A
C390        O393   1.266       .  A
Cd391       O398   2.423       .  S
Cd391       O397   2.452       .  S
Cd391       O396   2.436       .  S
Cd391       O392   2.533       .  S
Cd391       O395   2.491       .  S
Cd391       O393   2.464       .  S
C394        C654   1.472       .  S
N399        C403   1.361       .  A
N399        C400   1.365       .  A
N399        N406   1.427       .  S
C400        C669   1.491       .  S
C400        C401   1.388       .  A
C401        C402   1.367       .  A
C401        H404   1.083       .  S
C402        C403   1.375       .  A
C402        H405   1.083       .  S
C403        C637   1.485       .  S
N406        C410   1.368       .  A
N406        C407   1.359       .  A
C407        C630   1.480       .  S
C407        C408   1.387       .  A
C408        C409   1.373       .  A
C408        H411   1.083       .  S
C409        C410   1.383       .  A
C409        H412   1.081       .  S
C410        C633   1.492       .  S
O413        C416   1.274       .  A
O413       Cd418   2.502       .  S
C414        C634   1.480       .  S
C414        O419   1.270       .  A
O415        C421   1.277   1_655  A
O415       Cd418   2.515       .  S
C416        C650   1.478       .  S
C416        O424   1.265       .  A
C417        C638   1.480       .  S
C417        O422   1.274       .  A
C417        O420   1.267       .  A
Cd418       O425   2.379   1_655  S
Cd418       O424   2.413       .  S
Cd418       O423   2.495   1_655  S
Cd418       O422   2.508       .  S
Cd418       O420   2.396       .  S
C421        C625   1.473       .  S
C421        O425   1.265       .  A
N426        C430   1.365       .  A
N426        C427   1.372       .  A
N426        N433   1.428       .  S
C427        C617   1.498       .  S
C427        C428   1.375       .  A
C428        C429   1.370       .  A
C428        H431   1.081       .  S
C429        C430   1.384       .  A
C429        H432   1.083   1_565  S
C430        C621   1.484       .  S
N433        C437   1.368       .  A
N433        C434   1.359       .  A
C434        C609   1.484       .  S
C434        C435   1.378       .  A
C435        C436   1.375       .  A
C435        H438   1.082       .  S
C436        C437   1.392       .  A
C436        H439   1.083       .  S
C437        C614   1.495       .  S
O440        C443   1.276       .  A
O440       Cd445   2.525       .  S
C441        C622   1.475       .  S
C441        O450   1.266       .  A
C441        O446   1.278       .  A
O442        C448   1.271       .  A
C443        C606   1.482       .  S
C443        O451   1.267       .  A
C444        C629   1.475       .  S
C444        O449   1.275       .  A
C444        O447   1.266       .  A
Cd445       O452   2.436       .  S
Cd445       O451   2.419       .  S
Cd445       O450   2.390       .  S
Cd445       O446   2.503       .  S
Cd445       O449   2.487       .  S
Cd445       O447   2.417       .  S
C448        C613   1.490       .  S
N453        C457   1.374       .  A
N453        C454   1.367       .  A
N453        N460   1.430       .  S
C454        C597   1.495       .  S
C454        C455   1.375       .  A
C455        C456   1.369       .  A
C455        H458   1.082       .  S
C456        C457   1.390       .  A
C456        H459   1.082       .  S
C457        C601   1.504       .  S
N460        C464   1.366   1_545  A
N460        C461   1.375       .  A
C461        C642   1.501       .  S
C461        C462   1.381   1_545  A
C462        C463   1.364       .  A
C462        H465   1.080       .  S
C463        C464   1.384       .  A
C463        H466   1.082       .  S
C464        C593   1.484       .  S
O467        C470   1.266   1_565  A
O467       Cd472   2.559   1_565  S
C468        C682   1.488       .  S
C468        O477   1.268       .  A
C468        O473   1.265   1_455  A
O469        C475   1.268       .  A
C470        C602   1.493       .  S
C470        O478   1.265       .  A
C471        C610   1.475       .  S
C471        O476   1.261       .  A
C471        O474   1.268       .  A
Cd472       O479   2.499   1_655  S
Cd472       O478   2.492       .  S
Cd472       O477   2.524   1_654  S
Cd472       O473   2.488   1_554  S
Cd472       O476   2.464   1_544  S
Cd472       O474   2.479   1_544  S
C475        C594   1.478       .  S
N480        C481   1.362       .  A
N480        N487   1.422       .  S
C482        C483   1.366       .  A
C482        H485   1.083       .  S
C483        C484   1.380       .  A
C483        H486   1.083       .  S
C484        C589   1.478       .  S
N487        C491   1.362       .  A
N487        C488   1.358       .  A
C488        C582   1.467       .  S
C488        C489   1.381       .  A
C489        C490   1.369       .  A
C489        H492   1.082       .  S
C490        C491   1.381       .  A
C490        H493   1.083       .  S
C491        C586   1.479       .  S
O494        C497   1.268       .  A
O494       Cd499   2.493   1_554  S
C495        C618   1.485       .  S
C495        O504   1.262       .  A
C495        O500   1.270       .  A
O496        C502   1.264       .  A
O496       Cd499   2.508   1_554  S
C497        C590   1.475       .  S
C497        O505   1.264       .  A
C498        C674   1.474       .  S
C498        O503   1.268       .  A
C498        O501   1.266       .  A
Cd499       O506   2.465   1_556  S
Cd499       O505   2.439   1_556  S
Cd499       O504   2.463       .  S
Cd499       O500   2.528       .  S
Cd499       O503   2.466       .  S
Cd499       O501   2.452       .  S
C502        C585   1.484       .  S
C502        O506   1.266       .  A
N507        C511   1.362       .  A
N507        C508   1.367       .  A
N507        N514   1.425       .  S
C508        C626   1.485       .  S
C509        C510   1.366       .  A
C509        H512   1.083       .  S
C510        H513   1.082       .  S
N514        C518   1.368       .  A
N514        C515   1.365       .  A
C515        C570   1.485       .  S
C515        C516   1.384       .  A
C516        C517   1.363       .  A
C516        H519   1.082       .  S
C517        C518   1.381       .  A
C517        H520   1.083       .  S
C518        C573   1.483       .  S
O521        C524   1.271       .  A
O521       Cd526   2.511       .  S
C522        C578   1.475   1_655  S
C522        O531   1.262       .  A
C522        O527   1.271       .  A
O523        C529   1.266       .  A
O523       Cd526   2.485       .  S
C524        C598   1.487       .  S
C524        O532   1.263       .  A
C525        C581   1.469       .  S
C525        O530   1.272       .  A
C525        O528   1.264       .  A
Cd526       O533   2.485       .  S
Cd526       O532   2.469       .  S
Cd526       O531   2.416       .  S
Cd526       O527   2.526       .  S
Cd526       O530   2.448       .  S
Cd526       O528   2.433       .  S
C529        C574   1.482       .  S
C529        O533   1.267       .  A
N534        C535   1.369   1_655  A
N534        N541   1.424   1_545  S
C536        C537   1.370       .  A
C536        H539   1.082       .  S
C537        C538   1.380       .  A
C537        H540   1.082       .  S
C538        C565   1.489       .  S
N541        C545   1.358       .  A
N541        C542   1.360       .  A
C542        C665   1.479   1_565  S
C542        C543   1.374       .  A
C543        C544   1.375       .  A
C543        H546   1.080       .  S
C544        C545   1.392       .  A
C544        H547   1.080       .  S
C545        C562   1.485       .  S
O548        C551   1.266       .  A
O548       Cd553   2.494       .  S
C549        C658   1.477   1_565  S
C549        O558   1.262       .  A
C549        O554   1.268   1_565  A
O550        C556   1.266       .  A
O550       Cd553   2.464       .  S
C551        C566   1.477       .  S
C551        O559   1.263       .  A
C552        C569   1.474       .  S
C552        O557   1.267       .  A
C552        O555   1.266       .  A
Cd553       O560   2.479       .  S
Cd553       O559   2.468       .  S
Cd553       O558   2.453       .  S
Cd553       O554   2.502   1_565  S
Cd553       O557   2.454       .  S
Cd553       O555   2.481       .  S
C556        C561   1.477       .  S
C556        O560   1.267       .  A
C561        C562   1.348       .  D
C561        H563   1.086       .  S
C562        H564   1.083       .  S
C565        C566   1.347       .  D
C565        H567   1.086   1_565  S
C566        H568   1.086       .  S
C569        C570   1.348       .  D
C569        H571   1.083       .  S
C570        H572   1.086       .  S
C573        C574   1.346       .  D
C573        H575   1.085       .  S
C574        H576   1.087       .  S
C577        C578   1.344       .  D
C577        H579   1.086   1_455  S
C578        H580   1.087       .  S
C581        C582   1.335       .  D
C581        H583   1.086   1_655  S
C582        H584   1.083       .  S
C585        C586   1.342       .  D
C585        H587   1.087       .  S
C586        H588   1.087       .  S
C589        C590   1.343       .  D
C589        H591   1.085       .  S
C590        H592   1.086       .  S
C593        C594   1.349       .  D
C593        H595   1.086   1_565  S
C594        H596   1.086       .  S
C597        C598   1.344   1_545  D
C597        H599   1.087       .  S
C598        H600   1.085       .  S
C601        C602   1.357       .  D
C601        H603   1.086   1_545  S
C602        H604   1.087       .  S
C605        C606   1.348       .  D
C606        H608   1.087       .  S
C609        C610   1.341       .  D
C609        H611   1.086       .  S
C610        H612   1.086       .  S
C613        C614   1.356       .  D
C613        H615   1.086       .  S
C614        H616   1.085       .  S
C617        C618   1.343       .  D
C617        H619   1.087       .  S
C618        H620   1.085       .  S
C621        C622   1.340       .  D
C621        H623   1.087       .  S
C622        H624   1.086       .  S
C629        C630   1.339       .  D
C629        H631   1.084       .  S
C630        H632   1.086       .  S
C633        C634   1.349       .  D
C633        H635   1.083       .  S
C634        H636   1.085       .  S
C637        C638   1.347       .  D
C637        H639   1.088       .  S
C638        H640   1.084       .  S
C641        C642   1.359       .  D
C641        H643   1.084       .  S
C642        H644   1.085       .  S
C645        C646   1.339       .  D
C645        H647   1.087       .  S
C646        H648   1.087       .  S
C649        C650   1.344       .  D
C649        H651   1.086       .  S
C650        H652   1.089       .  S
C653        C654   1.340       .  D
C653        H655   1.088       .  S
C654        H656   1.087       .  S
C657        C658   1.344       .  D
C657        H659   1.086       .  S
C658        H660   1.088   1_545  S
C661        C662   1.348       .  D
C661        H663   1.088       .  S
C662        H664   1.084       .  S
C665        C666   1.343       .  D
C665        H667   1.085       .  S
C666        H668   1.086   1_545  S
C669        C670   1.344       .  D
C669        H671   1.086       .  S
C670        H672   1.088       .  S
C673        C674   1.347       .  D
C673        H675   1.087       .  S
C674        H676   1.087       .  S
C677        C678   1.339       .  D
C677        H679   1.085       .  S
C678        H680   1.086       .  S
C681        H683   1.087       .  S
C682        H684   1.087   1_455  S
C685        C686   1.351       .  D
C686        H688   1.084       .  S
