geometry optimzed in LAMMPS
_audit_creation_date              2020-11-30 
_audit_creation_method            'lammps2cif' 
_symmetry_space_group_name_H-M    'P1' 
_symmetry_Int_Tables_number       1 
_symmetry_cell_setting            triclinic 
loop_ 
_symmetry_equiv_pos_as_xyz 
  x,y,z 
_cell_length_a                    113.83479359293302 
_cell_length_b                    114.70286765624117 
_cell_length_c                    25.342504402718216 
_cell_angle_alpha                 89.70326330861396 
_cell_angle_beta                  90.0339549980312 
_cell_angle_gamma                 119.6269969989524 
loop_ 
_atom_site_label 
_atom_site_type_symbol 
_atom_site_fract_x 
_atom_site_fract_y 
_atom_site_fract_z 
_atom_site_charge 
In1        In  0.50111698  0.58534329  0.18049302     1.36870
C2          C  0.51925012  0.57901649  0.21687950     0.80480
O3          O  0.48718108  0.57125997  0.24344619    -0.57970
O4          O  0.48210271  0.56657199  0.16254801    -0.48880
C5          C  0.49490252  0.60326488  0.21843616     0.73140
O6          O  0.50564117  0.60332766  0.23107016    -0.43740
C7          C  0.50726423  0.59167909  0.07889653     0.77850
O8          O  0.51920168  0.58950860  0.23102010    -0.55600
O9          O  0.49683350  0.58136254  0.09451415    -0.45690
O10         O  0.51052676  0.57217597  0.18290586    -0.52030
C11         C  0.47898225  0.56327648  0.21003761     0.88030
O12         O  0.48775970  0.59454606  0.18511049    -0.53920
O13         O  0.51481825  0.59906578  0.11520052    -0.57220
In14       In  0.42227371  0.50673805  0.18015043     1.36870
C15         C  0.40417101  0.51289502  0.21775103     0.80480
O16         O  0.43620368  0.52054305  0.24316063    -0.57970
O17         O  0.44117455  0.52571455  0.16228898    -0.48880
C18         C  0.42849906  0.48861944  0.21680687     0.73140
O19         O  0.41768239  0.48839734  0.22940834    -0.43740
C20         C  0.41602155  0.50075186  0.07861279     0.77850
O21         O  0.40436123  0.50244980  0.23201266    -0.55600
O22         O  0.42659468  0.51089046  0.09403270    -0.45690
O23         O  0.41274420  0.51978325  0.18310838    -0.52030
C24         C  0.44432869  0.52875519  0.20981099     0.88030
O25         O  0.43572977  0.49761927  0.18417985    -0.53920
O26         O  0.40839146  0.49337575  0.11507257    -0.57220
In27       In  0.45836574  0.62832892  0.32161902     1.36870
C28         C  0.45256672  0.64621999  0.27981567     0.80480
O29         O  0.44304355  0.61410004  0.26346957    -0.57970
O30         O  0.43860616  0.61094266  0.34558224    -0.48880
C31         C  0.47618200  0.62166617  0.28483153     0.73140
O32         O  0.47796123  0.63337110  0.27994901    -0.43740
C33         C  0.46560113  0.63486349  0.42166245     0.77850
O34         O  0.46072661  0.64323787  0.25853799    -0.55600
O35         O  0.45582344  0.62382327  0.40778968    -0.45690
O36         O  0.44802391  0.64066662  0.32383422    -0.52030
C37         C  0.43483998  0.60708687  0.29913506     0.88030
O38         O  0.46570647  0.61365339  0.30977448    -0.53920
O39         O  0.47206894  0.64275177  0.38429276    -0.57220
In40       In  0.37836380  0.54883827  0.31907615     1.36870
C41         C  0.38538614  0.53138413  0.28274194     0.80480
O42         O  0.39285795  0.56441231  0.26170571    -0.57970
O43         O  0.39563274  0.56840984  0.34403337    -0.48880
C44         C  0.36002808  0.55410989  0.27717131     0.73140
O45         O  0.36381078  0.54674680  0.25478423    -0.43740
C46         C  0.37200740  0.54146066  0.41920730     0.77850
O47         O  0.37346441  0.52931326  0.27909506    -0.55600
O48         O  0.38277795  0.55163108  0.40498067    -0.45690
O49         O  0.39345591  0.54200222  0.30605845    -0.52030
C50         C  0.39974294  0.57237995  0.29783643     0.88030
O51         O  0.36502789  0.55813216  0.32221167    -0.53920
O52         O  0.36424890  0.53472019  0.38214546    -0.57220
In53       In  0.50128054  0.58534872  0.81902286     1.36870
C54         C  0.49535889  0.60351433  0.78094106     0.80480
O55         O  0.48729496  0.57157890  0.75600482    -0.57970
O56         O  0.48217335  0.56654633  0.83684380    -0.48880
C57         C  0.51941129  0.57904757  0.78284453     0.73140
O58         O  0.51948826  0.58964965  0.76899237    -0.43740
C59         C  0.50735341  0.59160022  0.92046865     0.77850
O60         O  0.50594015  0.60335023  0.76767444    -0.55600
O61         O  0.49697199  0.58124796  0.90515211    -0.45690
O62         O  0.48820538  0.59486566  0.81485231    -0.52030
C63         C  0.47905031  0.56347411  0.78932245     0.88030
O64         O  0.51056258  0.57207266  0.81649247    -0.53920
O65         O  0.51491465  0.59901894  0.88395316    -0.57220
In66       In  0.45884719  0.62878105  0.67984196     1.36870
C67         C  0.47685730  0.62223145  0.71515193     0.80480
O68         O  0.44394758  0.61437932  0.73934962    -0.57970
O69         O  0.43937248  0.61097287  0.65751279    -0.48880
C70         C  0.45285816  0.64639444  0.72223261     0.73140
O71         O  0.46112290  0.64346856  0.74303404    -0.43740
C72         C  0.46567096  0.63522047  0.57920104     0.77850
O73         O  0.47856298  0.63389251  0.72034020    -0.55600
O74         O  0.45537963  0.62462818  0.59390106    -0.45690
O75         O  0.46638717  0.61424104  0.69045307    -0.52030
C76         C  0.43581161  0.60711546  0.70426331     0.88030
O77         O  0.44836037  0.64100448  0.67817249    -0.53920
O78         O  0.47277519  0.64279501  0.61601921    -0.57220
In79       In  0.37916408  0.55015798  0.67457224     1.36870
C80         C  0.36202403  0.55893484  0.69740011     0.80480
O81         O  0.39239518  0.56506872  0.73581433    -0.57970
O82         O  0.39872146  0.56824493  0.65537177    -0.48880
C83         C  0.38479901  0.53219365  0.71750476     0.73140
O84         O  0.37413769  0.53245607  0.72912679    -0.43740
C85         C  0.37249729  0.54187930  0.57605168     0.77850
O86         O  0.36203231  0.54942724  0.72296341    -0.55600
O87         O  0.38357810  0.55185671  0.58868974    -0.45690
O88         O  0.37026020  0.56337023  0.65961068    -0.52030
C89         C  0.40114508  0.57236596  0.70217507     0.88030
O90         O  0.39212714  0.54067128  0.68341764    -0.53920
O91         O  0.36466803  0.53569845  0.61405837    -0.57220
In92       In  0.42185329  0.50723903  0.81838516     1.36870
C93         C  0.42823944  0.48928127  0.78138507     0.80480
O94         O  0.43592544  0.52120450  0.75538075    -0.57970
O95         O  0.44094527  0.52593197  0.83629112    -0.48880
C96         C  0.40350557  0.51353804  0.78322127     0.73140
O97         O  0.40319187  0.50277153  0.77052621    -0.43740
C98         C  0.41574857  0.50100707  0.92007743     0.77850
O99         O  0.41791385  0.48967660  0.76588611    -0.55600
O100        O  0.42600095  0.51147727  0.90431002    -0.45690
O101        O  0.43487355  0.49758350  0.81677467    -0.52030
C102        C  0.44413932  0.52917143  0.78881473     0.88030
O103        O  0.41276651  0.52071523  0.81481996    -0.53920
O104        O  0.40831389  0.49345220  0.88387229    -0.57220
In105      In  0.50734620  0.41926430  0.18195858     1.36870
C106        C  0.48950592  0.42602423  0.21848933     0.80480
O107        O  0.52127922  0.43325773  0.24457677    -0.57970
O108        O  0.52629242  0.43815100  0.16355602    -0.48880
C109        C  0.51327406  0.40081725  0.21840783     0.73140
O110        O  0.50232585  0.40049306  0.22966253    -0.43740
C111        C  0.50120452  0.41319029  0.08040018     0.77850
O112        O  0.48984426  0.41581439  0.23512323    -0.55600
O113        O  0.51195765  0.42311003  0.09589639    -0.45690
O114        O  0.49775834  0.43232201  0.18207839    -0.52030
C115        C  0.52940988  0.44137286  0.21097190     0.88030
O116        O  0.52083715  0.41015891  0.18761734    -0.53920
O117        O  0.49334081  0.40605710  0.11681041    -0.57220
In118      In  0.54913047  0.37545801  0.32726179     1.36870
C119        C  0.55757603  0.35819631  0.30233519     0.80480
O120        O  0.56439810  0.38886818  0.26667354    -0.57970
O121        O  0.56747071  0.39459978  0.34752471    -0.48880
C122        C  0.53131626  0.38155812  0.28497090     0.73140
O123        O  0.53108995  0.37068714  0.27450266    -0.43740
C124        C  0.54079237  0.36886917  0.42620301     0.77850
O125        O  0.54861581  0.35904884  0.27574545    -0.55600
O126        O  0.55106293  0.37969201  0.41314233    -0.45690
O127        O  0.56159300  0.36562496  0.34220357    -0.52030
C128        C  0.57170474  0.39731303  0.30077051     0.88030
O129        O  0.54015751  0.38884310  0.31778039    -0.53920
O130        O  0.53433233  0.36124447  0.38839714    -0.57220
In131      In  0.62815115  0.45506361  0.32160703     1.36870
C132        C  0.64563139  0.44883696  0.27900540     0.80480
O133        O  0.64266557  0.46838211  0.38479294    -0.57970
O134        O  0.62349998  0.45224461  0.40746619    -0.48880
C135        C  0.62204279  0.47322640  0.28572977     0.73140
O136        O  0.63378055  0.47482464  0.28143950    -0.43740
C137        C  0.60644200  0.43207649  0.29856657     0.77850
O138        O  0.64263905  0.45694658  0.25751246    -0.55600
O139        O  0.61050109  0.43554002  0.34505745    -0.45690
O140        O  0.64041185  0.44465362  0.32379518    -0.52030
C141        C  0.63461872  0.46189041  0.42178446     0.88030
O142        O  0.61373336  0.46275432  0.30973868    -0.53920
O143        O  0.61348551  0.44031433  0.26311379    -0.57220
In144      In  0.58590019  0.49836495  0.18095852     1.36870
C145        C  0.60392780  0.49220567  0.21934468     0.80480
O146        O  0.57186967  0.48434204  0.24390297    -0.57970
O147        O  0.56708395  0.47937022  0.16303046    -0.48880
C148        C  0.57998069  0.51664688  0.21702715     0.73140
O149        O  0.59090493  0.51694870  0.22831536    -0.43740
C150        C  0.59217526  0.50445569  0.07933030     0.77850
O151        O  0.60341715  0.50239308  0.23440102    -0.55600
O152        O  0.58143750  0.49449171  0.09503520    -0.45690
O153        O  0.59571959  0.48558513  0.18350443    -0.52030
C154        C  0.56384858  0.47617850  0.21051375     0.88030
O155        O  0.57245195  0.50745595  0.18600682    -0.53920
O156        O  0.59995799  0.51162007  0.11554887    -0.57220
In157      In  0.50702724  0.41973574  0.82004202     1.36870
C158        C  0.51289642  0.40147973  0.78314437     0.80480
O159        O  0.52105929  0.43359975  0.75676443    -0.57970
O160        O  0.52603859  0.43854692  0.83756395    -0.48880
C161        C  0.48905098  0.42629114  0.78341757     0.73140
O162        O  0.48916912  0.41588206  0.76855101    -0.43740
C163        C  0.50101380  0.41346149  0.92180417     0.77850
O164        O  0.50212074  0.40140410  0.77102581    -0.55600
O165        O  0.51152881  0.42366291  0.90597529    -0.45690
O166        O  0.52029305  0.41043840  0.81522625    -0.52030
C167        C  0.52921358  0.44169514  0.79000923     0.88030
O168        O  0.49761380  0.43292013  0.81821227    -0.53920
O169        O  0.49328908  0.40619078  0.88563808    -0.57220
In170      In  0.54822725  0.37475735  0.68294313     1.36870
C171        C  0.53090780  0.38212567  0.71907339     0.80480
O172        O  0.56382173  0.38920177  0.73984463    -0.57970
O173        O  0.56807692  0.39177020  0.65752447    -0.48880
C174        C  0.55324214  0.35633661  0.72514449     0.73140
O175        O  0.54596111  0.36025060  0.74765469    -0.43740
C176        C  0.54064296  0.36844289  0.58314545     0.77850
O177        O  0.52875470  0.37029054  0.72418320    -0.55600
O178        O  0.55121653  0.37886412  0.59668726    -0.45690
O179        O  0.54152252  0.38991976  0.69439625    -0.52030
C180        C  0.57194643  0.39595917  0.70354857     0.88030
O181        O  0.55731705  0.36126795  0.67989958    -0.53920
O182        O  0.53362976  0.36100133  0.62072848    -0.57220
In183      In  0.62789600  0.45463461  0.67942903     1.36870
C184        C  0.64563991  0.44872079  0.72192106     0.80480
O185        O  0.61334524  0.43933769  0.73736164    -0.57970
O186        O  0.61072620  0.43488078  0.65534216    -0.48880
C187        C  0.62164044  0.47259383  0.71607593     0.73140
O188        O  0.63347049  0.47438076  0.71886567    -0.43740
C189        C  0.63441123  0.46182488  0.57922477     0.77850
O190        O  0.64250648  0.45670329  0.74328976    -0.55600
O191        O  0.62296921  0.45269481  0.59378897    -0.45690
O192        O  0.64038357  0.44448597  0.67738027    -0.52030
C193        C  0.60661008  0.43111246  0.70171642     0.88030
O194        O  0.61326599  0.46199108  0.69342430    -0.53920
O195        O  0.64270877  0.46768741  0.61599903    -0.57220
In196      In  0.58590163  0.49822764  0.81965069     1.36870
C197        C  0.57993427  0.51651066  0.78321826     0.80480
O198        O  0.57192813  0.48446857  0.75664431    -0.57970
O199        O  0.56698507  0.47926489  0.83750954    -0.48880
C200        C  0.60378840  0.49182946  0.78197973     0.73140
O201        O  0.60358482  0.50222458  0.76707217    -0.43740
C202        C  0.59219763  0.50433390  0.92097159     0.77850
O203        O  0.59073727  0.51667810  0.77086040    -0.55600
O204        O  0.58151576  0.49428478  0.90575265    -0.45690
O205        O  0.57256826  0.50745715  0.81542018    -0.52030
C206        C  0.56382244  0.47623598  0.78998331     0.88030
O207        O  0.59538096  0.48515149  0.81743606    -0.53920
O208        O  0.59993085  0.51153830  0.88441139    -0.57220
In209      In  0.46481236  0.46313629  0.32041976     1.36870
C210        C  0.47117036  0.44520616  0.28285898     0.80480
O211        O  0.47922229  0.47752938  0.25928692    -0.57970
O212        O  0.48366094  0.48188267  0.34074630    -0.48880
C213        C  0.44691568  0.46967463  0.28263624     0.73140
O214        O  0.44694598  0.45915985  0.26867546    -0.43740
C215        C  0.45804671  0.45647244  0.42148000     0.77850
O216        O  0.46064851  0.44538856  0.26868526    -0.55600
O217        O  0.46867771  0.46670639  0.40677568    -0.45690
O218        O  0.47804721  0.45372650  0.31723599    -0.52030
C219        C  0.48713378  0.48540204  0.29367182     0.88030
O220        O  0.45553403  0.47643339  0.31705818    -0.53920
O221        O  0.45058349  0.44932388  0.38449459    -0.57220
In222      In  0.54418765  0.54237499  0.32040918     1.36870
C223        C  0.53790721  0.56032505  0.28245640     0.80480
O224        O  0.52979335  0.52817837  0.25940730    -0.57970
O225        O  0.52533511  0.52354648  0.34087781    -0.48880
C226        C  0.56202979  0.53586142  0.28278083     0.73140
O227        O  0.56190544  0.54630469  0.26799162    -0.43740
C228        C  0.55098090  0.54914418  0.42097051     0.77850
O229        O  0.54845509  0.56018724  0.26842542    -0.55600
O230        O  0.54037039  0.53885376  0.40689806    -0.45690
O231        O  0.53097263  0.55175910  0.31697282    -0.52030
C232        C  0.52187386  0.52018870  0.29380498     0.88030
O233        O  0.55355817  0.52918448  0.31804194    -0.53920
O234        O  0.55841926  0.55626463  0.38359443    -0.57220
In235      In  0.46450961  0.46342279  0.68025122     1.36870
C236        C  0.44675053  0.47021318  0.71743326     0.80480
O237        O  0.47892845  0.47764121  0.74113562    -0.57970
O238        O  0.48335843  0.48222308  0.65960430    -0.48880
C239        C  0.47067534  0.44533544  0.71806055     0.73140
O240        O  0.45975470  0.44502360  0.72966466    -0.43740
C241        C  0.45793322  0.45661456  0.57948707     0.77850
O242        O  0.44730520  0.46017233  0.73471339    -0.55600
O243        O  0.46858641  0.46682733  0.59380137    -0.45690
O244        O  0.45477008  0.47634610  0.68017312    -0.52030
C245        C  0.48685792  0.48558687  0.70664353     0.88030
O246        O  0.47805556  0.45443169  0.68604858    -0.53920
O247        O  0.45035569  0.44957353  0.61672519    -0.57220
In248      In  0.54413682  0.54241630  0.67956105     1.36870
C249        C  0.56189932  0.53578902  0.71757030     0.80480
O250        O  0.52974323  0.52802654  0.74069760    -0.57970
O251        O  0.52528856  0.52366031  0.65925418    -0.48880
C252        C  0.53796899  0.56040861  0.71710485     0.73140
O253        O  0.54881201  0.56061085  0.72909543    -0.43740
C254        C  0.55091347  0.54923691  0.57874350     0.77850
O255        O  0.56138885  0.54589616  0.73376004    -0.55600
O256        O  0.54019444  0.53906678  0.59322891    -0.45690
O257        O  0.55383579  0.52950111  0.68087191    -0.52030
C258        C  0.52180918  0.52016588  0.70634825     0.88030
O259        O  0.53068020  0.55149422  0.68468478    -0.53920
O260        O  0.55844000  0.55625359  0.61583477    -0.57220
In261      In  0.74662785  0.32780384  0.18571435     1.36870
C262        C  0.74524102  0.35002468  0.19611041     0.80480
O263        O  0.75731880  0.33292817  0.26407866    -0.57970
O264        O  0.76829042  0.33324953  0.19597206    -0.48880
C265        C  0.72630306  0.30367283  0.21103346     0.73140
O266        O  0.72487679  0.31378043  0.20516781    -0.43740
C267        C  0.74718481  0.32507227  0.08220903     0.77850
O268        O  0.73820320  0.33974454  0.22393380    -0.55600
O269        O  0.75520850  0.32374798  0.11260939    -0.45690
O270        O  0.75301715  0.34900750  0.16349779    -0.52030
C271        C  0.76850386  0.33534659  0.24478854     0.88030
O272        O  0.73822644  0.30587509  0.20595411    -0.53920
O273        O  0.73877427  0.32750649  0.10456135    -0.57220
In274      In  0.66763965  0.24804986  0.18360373     1.36870
C275        C  0.64464650  0.24829918  0.19893722     0.80480
O276        O  0.67145292  0.25904880  0.10653786    -0.57970
O277        O  0.66718486  0.23877787  0.10561364    -0.48880
C278        C  0.69151740  0.26843098  0.21185721     0.73140
O279        O  0.68092089  0.26924110  0.21038700    -0.43740
C280        C  0.66216681  0.22511318  0.23039477     0.77850
O281        O  0.65416359  0.25317122  0.23186977    -0.55600
O282        O  0.66764358  0.22849695  0.18569087    -0.45690
O283        O  0.64676609  0.24316124  0.15888276    -0.52030
C284        C  0.66987367  0.24918057  0.07963767     0.88030
O285        O  0.68989837  0.25700089  0.20189377    -0.53920
O286        O  0.66035037  0.23388016  0.25293806    -0.57220
In287      In  0.74530745  0.40835528  0.18832359     1.36870
C288        C  0.74468960  0.38509266  0.19760392     0.80480
O289        O  0.73539812  0.40049573  0.11047187    -0.57970
O290        O  0.75365369  0.41929207  0.11216054    -0.48880
C291        C  0.72563935  0.41329812  0.21314590     0.73140
O292        O  0.72436204  0.40179166  0.21670361    -0.43740
C293        C  0.76691672  0.42316778  0.24670956     0.77850
O294        O  0.73700012  0.38781033  0.22412852    -0.55600
O295        O  0.76658867  0.42483841  0.19769675    -0.45690
O296        O  0.75274340  0.39424615  0.16704830    -0.52030
C297        C  0.74430006  0.41035679  0.08500296     0.88030
O298        O  0.73718211  0.42248481  0.19964295    -0.53920
O299        O  0.75594686  0.41428368  0.26652443    -0.57220
In300      In  0.66716119  0.41166293  0.18446676     1.36870
C301        C  0.67032110  0.41497568  0.08081103     0.80480
O302        O  0.68923538  0.42446982  0.20442769    -0.57970
O303        O  0.68075883  0.40331786  0.20272532    -0.48880
C304        C  0.66078071  0.42698273  0.24221024     0.73140
O305        O  0.66144394  0.42762935  0.19258621    -0.43740
C306        C  0.64464544  0.38853992  0.19969861     0.77850
O307        O  0.67276186  0.42453972  0.11128999    -0.55600
O308        O  0.65524545  0.39174820  0.22566969    -0.45690
O309        O  0.66643065  0.40383313  0.10309113    -0.52030
C310        C  0.69108511  0.41457460  0.20916933     0.88030
O311        O  0.66378030  0.41875879  0.26259391    -0.53920
O312        O  0.64546814  0.39717311  0.16675330    -0.57220
In313      In  0.58723836  0.25104916  0.18655642     1.36870
C314        C  0.60958438  0.24952281  0.20089514     0.80480
O315        O  0.57808557  0.23666758  0.25523396    -0.57970
O316        O  0.56929334  0.23048959  0.17952517    -0.48880
C317        C  0.58436230  0.27179674  0.21670573     0.73140
O318        O  0.59559182  0.27220222  0.21588035    -0.43740
C319        C  0.58685271  0.25437295  0.08363491     0.77850
O320        O  0.60551250  0.25479834  0.23453013    -0.55600
O321        O  0.57690862  0.24534737  0.10840210    -0.45690
O322        O  0.60216935  0.24484182  0.16095490    -0.52030
C323        C  0.56928358  0.22738787  0.22714652     0.88030
O324        O  0.57443045  0.26054679  0.20579676    -0.53920
O325        O  0.59698195  0.26184850  0.11131852    -0.57220
In326      In  0.58675680  0.33042572  0.18220202     1.36870
C327        C  0.60962344  0.35306547  0.19899728     0.80480
O328        O  0.59614209  0.33152718  0.10329597    -0.57970
O329        O  0.57490177  0.32382163  0.10681684    -0.48880
C330        C  0.58433501  0.30699251  0.21338239     0.73140
O331        O  0.59546547  0.31710391  0.20226555    -0.43740
C332        C  0.56994550  0.33815978  0.22191504     0.77850
O333        O  0.60498355  0.34355871  0.23206638    -0.55600
O334        O  0.56961436  0.33474290  0.17464821    -0.45690
O335        O  0.60254397  0.35107389  0.15833787    -0.52030
C336        C  0.58515787  0.32696214  0.07864133     0.88030
O337        O  0.57437590  0.30891260  0.21139275    -0.53920
O338        O  0.57842992  0.33694521  0.25014030    -0.57220
In339      In  0.58658337  0.25127957  0.82145750     1.36870
C340        C  0.60914625  0.25060603  0.80353960     0.80480
O341        O  0.59683181  0.26150522  0.89640124    -0.57970
O342        O  0.57612401  0.24634206  0.89965692    -0.48880
C343        C  0.58333830  0.27164236  0.78980588     0.73140
O344        O  0.59469763  0.27238309  0.79251737    -0.43740
C345        C  0.56906626  0.22733449  0.78346956     0.77850
O346        O  0.60457663  0.25566715  0.77079063    -0.55600
O347        O  0.56965482  0.23025674  0.83146635    -0.45690
O348        O  0.60207717  0.24565134  0.84434097    -0.52030
C349        C  0.58648633  0.25465657  0.92427228     0.88030
O350        O  0.57346284  0.26027939  0.80025159    -0.53920
O351        O  0.57707685  0.23687930  0.75396125    -0.57220
In352      In  0.58775963  0.33088219  0.81493489     1.36870
C353        C  0.61094102  0.35344105  0.80290418     0.80480
O354        O  0.58089683  0.33521176  0.73762634    -0.57970
O355        O  0.57179335  0.33683349  0.80812588    -0.48880
C356        C  0.58389146  0.30690573  0.78804616     0.73140
O357        O  0.59539719  0.31718375  0.78915961    -0.43740
C358        C  0.58552569  0.32738240  0.91857703     0.77850
O359        O  0.60797194  0.34320277  0.77557949    -0.55600
O360        O  0.57584025  0.32606344  0.89031843    -0.45690
O361        O  0.60212098  0.35217393  0.83589158    -0.52030
C362        C  0.57276885  0.33826289  0.75872368     0.88030
O363        O  0.57420754  0.30888904  0.79833935    -0.53920
O364        O  0.59624238  0.33028612  0.89403495    -0.57220
In365      In  0.74693163  0.41044928  0.82206204     1.36870
C366        C  0.74644148  0.38727092  0.80907672     0.80480
O367        O  0.76120531  0.41749251  0.75294225    -0.57970
O368        O  0.76676600  0.42954302  0.82162676    -0.48880
C369        C  0.72704108  0.41469386  0.79176959     0.73140
O370        O  0.72600785  0.40327318  0.79148609    -0.43740
C371        C  0.74495545  0.41115708  0.92548120     0.77850
O372        O  0.74138192  0.39169638  0.77573672    -0.55600
O373        O  0.75579011  0.41849497  0.90106216    -0.45690
O374        O  0.75191051  0.39472261  0.84814682    -0.52030
C375        C  0.77008560  0.42777379  0.77636369     0.88030
O376        O  0.73847177  0.42413538  0.80452283    -0.53920
O377        O  0.73504398  0.40345518  0.89725381    -0.57220
In378      In  0.66813477  0.41224012  0.81722641     1.36870
C379        C  0.67087799  0.41529779  0.92093668     0.80480
O380        O  0.64652321  0.39764595  0.83569368    -0.57970
O381        O  0.65639883  0.39233514  0.77699893    -0.48880
C382        C  0.66133425  0.42728694  0.75899215     0.73140
O383        O  0.66260433  0.42835153  0.80838237    -0.43740
C384        C  0.69214925  0.41532746  0.79237399     0.77850
O385        O  0.67343360  0.42494464  0.89029420    -0.55600
O386        O  0.68192222  0.40405487  0.80021801    -0.45690
O387        O  0.66716980  0.40423838  0.89876802    -0.52030
C388        C  0.64580612  0.38903917  0.80325321     0.88030
O389        O  0.66400154  0.41882884  0.73900652    -0.53920
O390        O  0.69015156  0.42514809  0.79575485    -0.57220
In391      In  0.74715710  0.32926922  0.81916505     1.36870
C392        C  0.74635658  0.35185730  0.80849518     0.80480
O393        O  0.73917219  0.32853077  0.90045864    -0.57970
O394        O  0.75564665  0.32485817  0.89187506    -0.48880
C395        C  0.72663965  0.30533477  0.79471627     0.73140
O396        O  0.72538044  0.31554473  0.80000566    -0.43740
C397        C  0.76880464  0.33624802  0.75928979     0.77850
O398        O  0.73912198  0.34165913  0.78099650    -0.55600
O399        O  0.76870252  0.33442503  0.80837744    -0.45690
O400        O  0.75399884  0.35055703  0.84101856    -0.52030
C401        C  0.74751658  0.32591583  0.92247665     0.88030
O402        O  0.73849232  0.30734509  0.79979632    -0.53920
O403        O  0.75762119  0.33389210  0.74022733    -0.57220
In404      In  0.66736263  0.24988513  0.81612426     1.36870
C405        C  0.64453411  0.25028224  0.80180224     0.80480
O406        O  0.66367456  0.23925161  0.73839397    -0.57970
O407        O  0.66215845  0.22846196  0.80871854    -0.48880
C408        C  0.69155989  0.27038051  0.79304047     0.73140
O409        O  0.68111454  0.27145680  0.79552186    -0.43740
C410        C  0.66991106  0.24999754  0.91976182     0.77850
O411        O  0.65494635  0.25744186  0.77456415    -0.55600
O412        O  0.67167340  0.24210192  0.89080059    -0.45690
O413        O  0.64573854  0.24288591  0.83570384    -0.52030
C414        C  0.66093562  0.22819617  0.75927966     0.88030
O415        O  0.68965942  0.25870425  0.80002737    -0.53920
O416        O  0.66703772  0.25790895  0.89594645    -0.57220
In417      In  0.91492296  0.41352448  0.18093859     1.36870
C418        C  0.89088894  0.39544138  0.21926962     0.80480
O419        O  0.91441251  0.42722023  0.24354583    -0.57970
O420        O  0.91372553  0.43185727  0.16255247    -0.48880
C421        C  0.93945201  0.42020542  0.21733655     0.73140
O422        O  0.92922538  0.40905106  0.22799837    -0.43740
C423        C  0.91523691  0.40749655  0.07952918     0.77850
O424        O  0.90172249  0.39621422  0.23543726    -0.55600
O425        O  0.91558275  0.41804583  0.09484879    -0.45690
O426        O  0.89228659  0.40336117  0.18225017    -0.52030
C427        C  0.91380163  0.43505072  0.20999887     0.88030
O428        O  0.93724717  0.42755636  0.18672112    -0.53920
O429        O  0.91480159  0.39977816  0.11605107    -0.57220
In430      In  0.91318080  0.49152079  0.18012926     1.36870
C431        C  0.93731843  0.50962831  0.21664443     0.80480
O432        O  0.91323086  0.47751985  0.24314203    -0.57970
O433        O  0.91301531  0.47251371  0.16226644    -0.48880
C434        C  0.88905354  0.48548396  0.21798657     0.73140
O435        O  0.89967988  0.49584374  0.23211114    -0.43740
C436        C  0.91295109  0.49771229  0.07869960     0.77850
O437        O  0.92667111  0.50974723  0.22913076    -0.55600
O438        O  0.91361778  0.48764813  0.09414819    -0.45690
O439        O  0.93571274  0.50070996  0.18421361    -0.52030
C440        C  0.91310669  0.46935175  0.20977373     0.88030
O441        O  0.89067902  0.47861136  0.18332655    -0.53920
O442        O  0.91246787  0.50492036  0.11507499    -0.57220
In443      In  0.82928144  0.37023504  0.32313136     1.36870
C444        C  0.85375194  0.37703095  0.28587437     0.80480
O445        O  0.82837030  0.38489450  0.26591616    -0.57970
O446        O  0.82645114  0.38727724  0.34811853    -0.48880
C447        C  0.80578804  0.35232649  0.28131056     0.73140
O448        O  0.81697996  0.35547586  0.26009838    -0.43740
C449        C  0.83012113  0.36337734  0.42282601     0.77850
O450        O  0.84383941  0.36538377  0.28054085    -0.55600
O451        O  0.83143113  0.37449785  0.40921183    -0.45690
O452        O  0.85127452  0.38493214  0.31138373    -0.52030
C453        C  0.82684671  0.39155272  0.30198657     0.88030
O454        O  0.80663828  0.35778686  0.32518992    -0.53920
O455        O  0.82856535  0.35555379  0.38534966    -0.57220
In456      In  0.82777474  0.44960205  0.32162334     1.36870
C457        C  0.80406452  0.44395340  0.28112230     0.80480
O458        O  0.82675886  0.43402871  0.26497368    -0.57970
O459        O  0.82643878  0.43039365  0.34751795    -0.48880
C460        C  0.85202396  0.46707794  0.28427199     0.73140
O461        O  0.84186873  0.46851172  0.27682906    -0.43740
C462        C  0.82857269  0.45767941  0.41992897     0.77850
O463        O  0.81509002  0.45169973  0.25854344    -0.55600
O464        O  0.82870983  0.44713192  0.40809854    -0.45690
O465        O  0.80520110  0.43969413  0.32564286    -0.52030
C466        C  0.82625055  0.42628569  0.30144261     0.88030
O467        O  0.84988077  0.45707681  0.31182679    -0.53920
O468        O  0.82803122  0.46438243  0.38136092    -0.57220
In469      In  0.91239013  0.49143711  0.81912845     1.36870
C470        C  0.88795532  0.48537169  0.78371960     0.80480
O471        O  0.91235098  0.47748330  0.75627825    -0.57970
O472        O  0.91248902  0.47252536  0.83722291    -0.48880
C473        C  0.93667506  0.50951304  0.78216585     0.73140
O474        O  0.92604481  0.50959390  0.76883554    -0.43740
C475        C  0.91251227  0.49763540  0.92044689     0.77850
O476        O  0.89852115  0.49570677  0.76841049    -0.55600
O477        O  0.91261591  0.48730364  0.90512265    -0.45690
O478        O  0.88981888  0.47852443  0.81810083    -0.52030
C479        C  0.91247367  0.46938055  0.78977026     0.88030
O480        O  0.93495450  0.50063457  0.81539557    -0.53920
O481        O  0.91235667  0.50508126  0.88398669    -0.57220
In482      In  0.91508691  0.41387681  0.81954585     1.36870
C483        C  0.93970193  0.42071112  0.78332543     0.80480
O484        O  0.91443164  0.42760760  0.75669630    -0.57970
O485        O  0.91376791  0.43212947  0.83760080    -0.48880
C486        C  0.89116726  0.39560874  0.78165930     0.73140
O487        O  0.90206453  0.39644168  0.76602503    -0.43740
C488        C  0.91528674  0.40764791  0.92108740     0.77850
O489        O  0.92946303  0.40967544  0.77194624    -0.55600
O490        O  0.91553455  0.41817369  0.90559318    -0.45690
O491        O  0.93745600  0.42788991  0.81439342    -0.52030
C492        C  0.91375777  0.43535646  0.79011432     0.88030
O493        O  0.89244491  0.40359510  0.81787035    -0.53920
O494        O  0.91499693  0.40005394  0.88468763    -0.57220
In495      In  0.82957850  0.37006892  0.67940842     1.36870
C496        C  0.80594294  0.35232791  0.72138049     0.80480
O497        O  0.82891601  0.38454475  0.73758589    -0.57970
O498        O  0.82771278  0.38775696  0.65543278    -0.48880
C499        C  0.85408308  0.37681710  0.71562847     0.73140
O500        O  0.84408705  0.36528726  0.72299644    -0.43740
C501        C  0.83008416  0.36322529  0.57977625     0.77850
O502        O  0.81707484  0.35503991  0.74197133    -0.55600
O503        O  0.83059543  0.37399276  0.59306299    -0.45690
O504        O  0.80690812  0.35810246  0.67791686    -0.52030
C505        C  0.82798586  0.39171394  0.70183285     0.88030
O506        O  0.85167368  0.38457165  0.68838129    -0.53920
O507        O  0.82941074  0.35570911  0.61753755    -0.57220
In508      In  0.82793173  0.44883004  0.67277267     1.36870
C509        C  0.85108272  0.46680370  0.71648030     0.80480
O510        O  0.82620706  0.43354347  0.73300507    -0.57970
O511        O  0.82983287  0.43101966  0.65252727    -0.48880
C512        C  0.80216251  0.43985755  0.69579564     0.73140
O513        O  0.81158674  0.44934439  0.72117921    -0.43740
C514        C  0.82923804  0.45769814  0.57536925     0.77850
O515        O  0.83995585  0.46591580  0.72938134    -0.55600
O516        O  0.83079793  0.44787597  0.58684454    -0.45690
O517        O  0.85036006  0.45894843  0.68064504    -0.52030
C518        C  0.82793179  0.42654541  0.69902374     0.88030
O519        O  0.80596824  0.43550933  0.65786548    -0.53920
O520        O  0.82735053  0.46346938  0.61403740    -0.57220
In521      In  0.08655523  0.50309740  0.18007797     1.36870
C522        C  0.06243271  0.48465226  0.21670627     0.80480
O523        O  0.08630647  0.51690289  0.24285514    -0.57970
O524        O  0.08658179  0.52206975  0.16190140    -0.48880
C525        C  0.11089876  0.50971035  0.21769179     0.73140
O526        O  0.10035114  0.49946444  0.23369449    -0.43740
C527        C  0.08671692  0.49701581  0.07865894     0.77850
O528        O  0.07308328  0.48435911  0.22767948    -0.55600
O529        O  0.08567221  0.50684812  0.09399428    -0.45690
O530        O  0.06403962  0.49393258  0.18581470    -0.52030
C531        C  0.08642089  0.52512129  0.20937560     0.88030
O532        O  0.10908455  0.51612635  0.18127304    -0.53920
O533        O  0.08761447  0.48998281  0.11515463    -0.57220
In534      In  0.17219463  0.54707105  0.31971373     1.36870
C535        C  0.19597800  0.55326503  0.27740305     0.80480
O536        O  0.17258339  0.56257641  0.26363303    -0.57970
O537        O  0.17400983  0.56639261  0.34614091    -0.48880
C538        C  0.14804141  0.52913967  0.28287432     0.73140
O539        O  0.15818322  0.52753873  0.27870510    -0.43740
C540        C  0.17130341  0.53922689  0.41902716     0.77850
O541        O  0.18493277  0.54577247  0.25473581    -0.55600
O542        O  0.17015745  0.54918340  0.40581560    -0.45690
O543        O  0.19483660  0.55693980  0.32292999    -0.52030
C544        C  0.17360754  0.57041046  0.30025243     0.88030
O545        O  0.15015576  0.53955930  0.30682296    -0.53920
O546        O  0.17284106  0.53296163  0.38134350    -0.57220
In547      In  0.17004925  0.62621336  0.32057391     1.36870
C548        C  0.14548701  0.61876323  0.28304649     0.80480
O549        O  0.17157230  0.61189579  0.26404945    -0.57970
O550        O  0.17256448  0.60899624  0.34658289    -0.48880
C551        C  0.19364872  0.64455531  0.27987567     0.73140
O552        O  0.18253329  0.64110438  0.25747039    -0.43740
C553        C  0.16862526  0.63293757  0.41945780     0.77850
O554        O  0.15526100  0.63045022  0.27617918    -0.55600
O555        O  0.16880332  0.62244880  0.40698638    -0.45690
O556        O  0.14815336  0.61115967  0.31009066    -0.52030
C557        C  0.17268203  0.60500714  0.30055997     0.88030
O558        O  0.19264206  0.63919080  0.32434002    -0.53920
O559        O  0.16911684  0.64025318  0.38123564    -0.57220
In560      In  0.08451300  0.58093887  0.17957902     1.36870
C561        C  0.10837958  0.59935750  0.21726318     0.80480
O562        O  0.08505144  0.56718580  0.24258520    -0.57970
O563        O  0.08577937  0.56266261  0.16171722    -0.48880
C564        C  0.05994399  0.57396654  0.21619988     0.73140
O565        O  0.07016599  0.58498001  0.22791098    -0.43740
C566        C  0.08424463  0.58705519  0.07798886     0.77850
O567        O  0.09746764  0.59859617  0.23222579    -0.55600
O568        O  0.08435825  0.57671739  0.09362589    -0.45690
O569        O  0.10714244  0.59119452  0.18187806    -0.52030
C570        C  0.08567754  0.55939969  0.20922276     0.88030
O571        O  0.06216810  0.56691129  0.18439215    -0.53920
O572        O  0.08420962  0.59452198  0.11427057    -0.57220
In573      In  0.08745664  0.50342847  0.81838273     1.36870
C574        C  0.11202043  0.50984135  0.78262119     0.80480
O575        O  0.08748325  0.51750780  0.75541601    -0.57970
O576        O  0.08749669  0.52238216  0.83631551    -0.48880
C577        C  0.06328207  0.48512053  0.78162274     0.73140
O578        O  0.07391327  0.48475938  0.77096681    -0.43740
C579        C  0.08711346  0.49714411  0.92014997     0.77850
O580        O  0.10145426  0.49982861  0.76568478    -0.55600
O581        O  0.08647528  0.50718719  0.90419105    -0.45690
O582        O  0.11008771  0.51616863  0.81876182    -0.52030
C583        C  0.08747004  0.52560252  0.78884674     0.88030
O584        O  0.06493862  0.49441841  0.81207723    -0.53920
O585        O  0.08786208  0.48999650  0.88410691    -0.57220
In586      In  0.17246264  0.54741268  0.67365945     1.36870
C587        C  0.14912452  0.52907192  0.71621009     0.80480
O588        O  0.17399754  0.56258039  0.73331468    -0.57970
O589        O  0.17057261  0.56521626  0.65257221    -0.48880
C590        C  0.19822229  0.55647430  0.69888721     0.73140
O591        O  0.18862174  0.54816931  0.72770946    -0.43740
C592        C  0.17104578  0.53915724  0.57542063     0.77850
O593        O  0.16001261  0.52898830  0.72492001    -0.55600
O594        O  0.16993170  0.54916804  0.58780460    -0.45690
O595        O  0.15017085  0.53809344  0.68508041    -0.52030
C596        C  0.17225338  0.56956515  0.69902199     0.88030
O597        O  0.19459606  0.55943991  0.65641466    -0.53920
O598        O  0.17259500  0.53292055  0.61358065    -0.57220
In599      In  0.17007436  0.62553731  0.67369487     1.36870
C600        C  0.19557433  0.64281801  0.69874665     0.80480
O601        O  0.17237106  0.61220858  0.73349684    -0.57970
O602        O  0.16942551  0.60647846  0.65262930    -0.48880
C603        C  0.14633095  0.61947440  0.71651122     0.73140
O604        O  0.15692770  0.63038465  0.72652276    -0.43740
C605        C  0.16820346  0.63244449  0.57559404     0.77850
O606        O  0.18573352  0.64152023  0.72631021    -0.55600
O607        O  0.16762384  0.62153611  0.58779352    -0.45690
O608        O  0.19229126  0.63584242  0.65760239    -0.52030
C609        C  0.17120783  0.60380549  0.69914216     0.88030
O610        O  0.14784864  0.61210220  0.68395790    -0.53920
O611        O  0.16943116  0.63996818  0.61387320    -0.57220
In612      In  0.08513226  0.58121190  0.81835984     1.36870
C613        C  0.06044439  0.57388691  0.78153292     0.80480
O614        O  0.08603675  0.56773852  0.75552203    -0.57970
O615        O  0.08621365  0.56279010  0.83644546    -0.48880
C616        C  0.10925359  0.60010472  0.78297336     0.73140
O617        O  0.09842264  0.59964508  0.76865090    -0.43740
C618        C  0.08458190  0.58718965  0.91961651     0.77850
O619        O  0.07074016  0.58454883  0.76665066    -0.55600
O620        O  0.08526093  0.57713673  0.90452094    -0.45690
O621        O  0.06268091  0.56736912  0.81624833    -0.52030
C622        C  0.08643372  0.55977001  0.78897382     0.88030
O623        O  0.10778584  0.59134451  0.81635517    -0.53920
O624        O  0.08415994  0.59445115  0.88295105    -0.57220
In625      In  0.00066939  0.45767225  0.32029402     1.36870
C626        C  0.02517231  0.46476336  0.28232434     0.80480
O627        O  0.00038675  0.47183643  0.25860520    -0.57970
O628        O  0.00032417  0.47635496  0.33991179    -0.48880
C629        C  0.97662397  0.43935606  0.28299067     0.73140
O630        O  0.98731486  0.43915081  0.27195340    -0.43740
C631        C  0.00077912  0.45114243  0.42153055     0.77850
O632        O  0.01469275  0.45456011  0.26598992    -0.55600
O633        O  0.99979544  0.46106151  0.40650401    -0.45690
O634        O  0.02321293  0.47088928  0.31920356    -0.52030
C635        C  0.00025621  0.47973521  0.29268891     0.88030
O636        O  0.97814901  0.44844664  0.31433935    -0.53920
O637        O  0.00162398  0.44421590  0.38478090    -0.57220
In638      In  0.99887187  0.53601096  0.32047440     1.36870
C639        C  0.97444071  0.52902789  0.28265937     0.80480
O640        O  0.99926129  0.52204161  0.25879538    -0.57970
O641        O  0.99946636  0.51740161  0.34008094    -0.48880
C642        C  0.02282906  0.55445226  0.28264940     0.73140
O643        O  0.01205894  0.55440376  0.27071195    -0.43740
C644        C  0.99865768  0.54243641  0.42143909     0.77850
O645        O  0.98489793  0.53941620  0.26702477    -0.55600
O646        O  0.99944766  0.53241124  0.40684844    -0.45690
O647        O  0.97637233  0.52263540  0.31884727    -0.52030
C648        C  0.99951324  0.51412303  0.29284691     0.88030
O649        O  0.02142483  0.54554305  0.31515982    -0.53920
O650        O  0.99800466  0.54947797  0.38440280    -0.57220
In651      In  0.99878094  0.53595524  0.68075893     1.36870
C652        C  0.02294264  0.55421449  0.71770802     0.80480
O653        O  0.99925760  0.52192552  0.74261088    -0.57970
O654        O  0.99936038  0.51739153  0.66133476    -0.48880
C655        C  0.97417525  0.52891453  0.71783227     0.73140
O656        O  0.98452246  0.53958365  0.73182365    -0.43740
C657        C  0.99856277  0.54241758  0.57955533     0.77850
O658        O  0.01216900  0.55385981  0.73207588    -0.55600
O659        O  0.99911287  0.53226191  0.59457168    -0.45690
O660        O  0.02141638  0.54569981  0.68345546    -0.52030
C661        C  0.99947078  0.51405453  0.70858312     0.88030
O662        O  0.97631784  0.52225329  0.68380513    -0.53920
O663        O  0.99812139  0.54956991  0.61629638    -0.57220
In664      In  0.00120178  0.45798706  0.68058050     1.36870
C665        C  0.97708253  0.43976188  0.71834699     0.80480
O666        O  0.00062117  0.47183021  0.74232580    -0.57970
O667        O  0.00064353  0.47661342  0.66104646    -0.48880
C668        C  0.02586286  0.46520733  0.71737183     0.73140
O669        O  0.01553415  0.45460376  0.73247529    -0.43740
C670        C  0.00119426  0.45139121  0.57967641     0.77850
O671        O  0.98782518  0.43993752  0.73195822    -0.55600
O672        O  0.00070053  0.46158256  0.59417628    -0.45690
O673        O  0.97861387  0.44841049  0.68432112    -0.52030
C674        C  0.00045125  0.47980030  0.70831391     0.88030
O675        O  0.02367863  0.47167018  0.68225053    -0.53920
O676        O  0.00172265  0.44429330  0.61679060    -0.57220
In677      In  0.50340291  0.08533177  0.18976433     1.36870
C678        C  0.50919106  0.10956708  0.22373685     0.80480
O679        O  0.51765142  0.08567702  0.25286340    -0.57970
O680        O  0.52235468  0.08500863  0.17209510    -0.48880
C681        C  0.48540577  0.06123238  0.22762418     0.73140
O682        O  0.48568403  0.07183128  0.24253344    -0.43740
C683        C  0.49721735  0.08539723  0.08832717     0.77850
O684        O  0.49856469  0.09909446  0.23759171    -0.55600
O685        O  0.50774130  0.08551060  0.10384825    -0.45690
O686        O  0.51651234  0.10769966  0.19170702    -0.52030
C687        C  0.52568984  0.08531710  0.21958022     0.88030
O688        O  0.49384008  0.06288739  0.19228295    -0.53920
O689        O  0.48954288  0.08518093  0.12464395    -0.57220
In690      In  0.62468881  0.16751227  0.33259773     1.36870
C691        C  0.64145402  0.19307954  0.30948325     0.80480
O692        O  0.61119948  0.16913236  0.27140256    -0.57970
O693        O  0.60490773  0.16583297  0.35189876    -0.48880
C694        C  0.61949541  0.14434030  0.28991922     0.73140
O695        O  0.62963897  0.15528021  0.27602477    -0.43740
C696        C  0.63199126  0.16607607  0.43033760     0.77850
O697        O  0.64189840  0.18368536  0.28524906    -0.55600
O698        O  0.62073692  0.16493102  0.41864451    -0.45690
O699        O  0.63290230  0.18933839  0.34615873    -0.52030
C700        C  0.60238787  0.16756519  0.30507987     0.88030
O701        O  0.61250243  0.14526031  0.32626708    -0.53920
O702        O  0.63965821  0.16765957  0.39176848    -0.57220
In703      In  0.54593564  0.16936768  0.33079698     1.36870
C704        C  0.52761610  0.14632793  0.28846667     0.80480
O705        O  0.56093106  0.17041819  0.27034368    -0.57970
O706        O  0.56369790  0.16716988  0.35116820    -0.48880
C707        C  0.55535971  0.19511323  0.30769512     0.73140
O708        O  0.54616662  0.18584105  0.28067740    -0.43740
C709        C  0.53695982  0.16768867  0.42809343     0.77850
O710        O  0.52831915  0.15732309  0.27574297    -0.55600
O711        O  0.54716708  0.16668275  0.41668630    -0.45690
O712        O  0.53581334  0.14714409  0.32342156    -0.52030
C713        C  0.56793815  0.16860580  0.30444096     0.88030
O714        O  0.55914543  0.19117199  0.34719533    -0.53920
O715        O  0.53093951  0.16936165  0.38942366    -0.57220
In716      In  0.58206353  0.08354255  0.19081434     1.36870
C717        C  0.57557931  0.05935096  0.22884037     0.80480
O718        O  0.56838107  0.08442419  0.25353758    -0.57970
O719        O  0.56321016  0.08402389  0.17263473    -0.48880
C720        C  0.60074547  0.10762763  0.22465041     0.73140
O721        O  0.60030738  0.09699108  0.24057662    -0.43740
C722        C  0.58824112  0.08308930  0.08974446     0.77850
O723        O  0.58620038  0.06978733  0.24253963    -0.55600
O724        O  0.57781767  0.08324045  0.10477964    -0.45690
O725        O  0.56863707  0.06120587  0.19477260    -0.52030
C726        C  0.56020977  0.08445933  0.22003480     0.88030
O727        O  0.59205700  0.10598903  0.19051175    -0.53920
O728        O  0.59575085  0.08310787  0.12637756    -0.57220
In729      In  0.58251231  0.08352572  0.83011556     1.36870
C730        C  0.60090949  0.10708219  0.79098047     0.80480
O731        O  0.56851857  0.08385648  0.76754256    -0.57970
O732        O  0.56454557  0.08561750  0.84828342    -0.48880
C733        C  0.57632421  0.05939086  0.79447477     0.73140
O734        O  0.58773596  0.06953375  0.78638185    -0.43740
C735        C  0.58836572  0.08294315  0.93157464     0.77850
O736        O  0.59940797  0.09617979  0.77341699    -0.55600
O737        O  0.57740177  0.08181877  0.91581225    -0.45690
O738        O  0.59351390  0.10598157  0.82965752    -0.52030
C739        C  0.56102800  0.08511678  0.80092935     0.88030
O740        O  0.56839592  0.06147588  0.82211507    -0.53920
O741        O  0.59654762  0.08423310  0.89548692    -0.57220
In742      In  0.62618038  0.16778076  0.68547645     1.36870
C743        C  0.61955651  0.14366099  0.72318033     0.80480
O744        O  0.61146609  0.16875085  0.74231748    -0.57970
O745        O  0.60871089  0.17004061  0.65984262    -0.48880
C746        C  0.64421031  0.19116306  0.72617660     0.73140
O747        O  0.64065626  0.18015441  0.74915380    -0.43740
C748        C  0.63283979  0.16658754  0.58630483     0.77850
O749        O  0.63131834  0.15349314  0.72787880    -0.55600
O750        O  0.62201336  0.16617662  0.59951727    -0.45690
O751        O  0.61145693  0.14604473  0.69804826    -0.52030
C752        C  0.60452888  0.16985513  0.70592696     0.88030
O753        O  0.63912801  0.19016474  0.68114850    -0.53920
O754        O  0.64052003  0.16754572  0.62392094    -0.57220
In755      In  0.54676320  0.16993416  0.67979416     1.36870
C756        C  0.55532310  0.19543774  0.70264069     0.80480
O757        O  0.56254649  0.17186960  0.73821730    -0.57970
O758        O  0.56491974  0.16857253  0.65726091    -0.48880
C759        C  0.52882167  0.14695428  0.72477919     0.73140
O760        O  0.52902278  0.15783014  0.73462429    -0.43740
C761        C  0.53729278  0.16782047  0.58309944     0.77850
O762        O  0.54696190  0.18593978  0.73160466    -0.55600
O763        O  0.54754022  0.16683220  0.59404148    -0.45690
O764        O  0.55869830  0.19182365  0.66129398    -0.52030
C765        C  0.56956928  0.17036581  0.70337947     0.88030
O766        O  0.53740692  0.14783302  0.69153142    -0.53920
O767        O  0.53146147  0.16962990  0.62195902    -0.57220
In768      In  0.50431762  0.08623818  0.82912600     1.36870
C769        C  0.48649591  0.06212657  0.79232068     0.80480
O770        O  0.51848212  0.08621042  0.76662847    -0.57970
O771        O  0.52346836  0.08641043  0.84768312    -0.48880
C772        C  0.51021369  0.11041851  0.79320106     0.73140
O773        O  0.49964918  0.09993091  0.77943927    -0.43740
C774        C  0.49768635  0.08593923  0.93016215     0.77850
O775        O  0.48665373  0.07267144  0.77694158    -0.55600
O776        O  0.50829469  0.08614207  0.91525517    -0.45690
O777        O  0.49497930  0.06384551  0.82750498    -0.52030
C778        C  0.52667232  0.08628853  0.80031065     0.88030
O779        O  0.51737154  0.10860548  0.82635639    -0.53920
O780        O  0.49019968  0.08591296  0.89341086    -0.57220
In781      In  0.25532971  0.58943855  0.18616080     1.36870
C782        C  0.25544091  0.61242590  0.19737889     0.80480
O783        O  0.26419471  0.59767262  0.10682003    -0.57970
O784        O  0.24809928  0.57750029  0.11157270    -0.48880
C785        C  0.27591666  0.58583518  0.21169015     0.73140
O786        O  0.27682373  0.59720698  0.21048038    -0.43740
C787        C  0.23331967  0.57418737  0.24304026     0.77850
O788        O  0.26271298  0.60940069  0.22532491    -0.55600
O789        O  0.23368713  0.57338669  0.19358224    -0.45690
O790        O  0.24807547  0.60372545  0.16424882    -0.52030
C791        C  0.25641166  0.58701764  0.08290738     0.88030
O792        O  0.26432836  0.57615019  0.20241210    -0.53920
O793        O  0.24440718  0.58239994  0.26386396    -0.57220
In794      In  0.33531341  0.58907478  0.18621632     1.36870
C795        C  0.35791748  0.61209475  0.19886077     0.80480
O796        O  0.33937857  0.58212312  0.26384712    -0.57970
O797        O  0.34116170  0.57314313  0.19359808    -0.48880
C798        C  0.31117471  0.58566568  0.21121194     0.73140
O799        O  0.32158789  0.59701531  0.20851834    -0.43740
C800        C  0.33225326  0.58673801  0.08267030     0.77850
O801        O  0.34755419  0.60891184  0.22650800    -0.55600
O802        O  0.33041734  0.57703633  0.11174156    -0.45690
O803        O  0.35678484  0.60352293  0.16542895    -0.52030
C804        C  0.34242679  0.57401907  0.24302049     0.88030
O805        O  0.31308240  0.57590123  0.20339312    -0.53920
O806        O  0.33547114  0.59751533  0.10633586    -0.57220
In807      In  0.41405276  0.74817974  0.18619350     1.36870
C808        C  0.39107625  0.74823869  0.20460868     0.80480
O809        O  0.42413911  0.76195172  0.25516243    -0.57970
O810        O  0.42972602  0.76971773  0.17738364    -0.48880
C811        C  0.41750985  0.72767486  0.21415188     0.73140
O812        O  0.40603588  0.72656526  0.20846040    -0.43740
C813        C  0.41591809  0.74604557  0.08335101     0.77850
O814        O  0.39596959  0.74353226  0.23756744    -0.55600
O815        O  0.42592548  0.75380933  0.11097508    -0.45690
O816        O  0.39794755  0.75300383  0.16325263    -0.52030
C817        C  0.43122170  0.77200771  0.22606198     0.88030
O818        O  0.42726231  0.73939961  0.20902501    -0.53920
O819        O  0.40502355  0.73918077  0.10819833    -0.57220
In820      In  0.41654019  0.66965938  0.18596404     1.36870
C821        C  0.41993782  0.67249882  0.08226097     0.80480
O822        O  0.40205646  0.64833866  0.16548059    -0.57970
O823        O  0.39651963  0.65738812  0.22654312    -0.48880
C824        C  0.43157248  0.66262866  0.24391836     0.73140
O825        O  0.43304643  0.66448687  0.19478820    -0.43740
C826        C  0.41879149  0.69319668  0.21090210     0.77850
O827        O  0.42962131  0.67522563  0.11315644    -0.55600
O828        O  0.40764923  0.68285339  0.20257213    -0.45690
O829        O  0.40870158  0.66866918  0.10420895    -0.52030
C830        C  0.39335404  0.64715637  0.19891488     0.88030
O831        O  0.42285306  0.66500583  0.26393950    -0.53920
O832        O  0.42892654  0.69157063  0.20796228    -0.57220
In833      In  0.25345247  0.66979341  0.18899551     1.36870
C834        C  0.25455592  0.64736244  0.19896348     0.80480
O835        O  0.24232487  0.66477324  0.26670812    -0.57970
O836        O  0.23166840  0.66417664  0.19724881    -0.48880
C837        C  0.27397648  0.69376949  0.21431533     0.73140
O838        O  0.27509624  0.68344026  0.21103039    -0.43740
C839        C  0.25361164  0.67300239  0.08552039     0.77850
O840        O  0.26139626  0.65740445  0.22780021    -0.55600
O841        O  0.24555210  0.67444293  0.11519625    -0.45690
O842        O  0.24707063  0.64870032  0.16578200    -0.52030
C843        C  0.23120068  0.66217429  0.24629058     0.88030
O844        O  0.26221665  0.69185993  0.20701656    -0.53920
O845        O  0.26170382  0.67021144  0.10859041    -0.57220
In846      In  0.33303440  0.74940839  0.18617602     1.36870
C847        C  0.35578428  0.74888077  0.20451808     0.80480
O848        O  0.33328711  0.74079500  0.10742026    -0.57970
O849        O  0.32693961  0.75538789  0.11113896    -0.48880
C850        C  0.30913582  0.72879818  0.21421573     0.73140
O851        O  0.31950298  0.72774492  0.20769054    -0.43740
C852        C  0.34016625  0.77334627  0.22692390     0.77850
O853        O  0.34623690  0.74442342  0.23754549    -0.55600
O854        O  0.33869527  0.77096904  0.17831527    -0.45690
O855        O  0.35380624  0.75375798  0.16311795    -0.52030
C856        C  0.32927682  0.74775632  0.08296386     0.88030
O857        O  0.31103019  0.74052425  0.20951297    -0.53920
O858        O  0.33752290  0.76330234  0.25563082    -0.57220
In859      In  0.25163538  0.66862703  0.82264409     1.36870
C860        C  0.25242468  0.64622281  0.80364355     0.80480
O861        O  0.25938578  0.66758902  0.90266620    -0.57970
O862        O  0.24597460  0.67545250  0.89636052    -0.48880
C863        C  0.27260933  0.69226607  0.79475580     0.73140
O864        O  0.27370068  0.68215318  0.80554834    -0.43740
C865        C  0.22733517  0.66126352  0.78246689     0.77850
O866        O  0.25681041  0.65577883  0.77085676    -0.55600
O867        O  0.22994019  0.66313590  0.83087268    -0.45690
O868        O  0.24747534  0.64801591  0.84515072    -0.52030
C869        C  0.25293268  0.67236140  0.92581095     0.88030
O870        O  0.26069480  0.69023959  0.79516869    -0.53920
O871        O  0.23733901  0.66365591  0.75363731    -0.57220
In872      In  0.33207119  0.74759592  0.81980283     1.36870
C873        C  0.35473149  0.74668709  0.80844467     0.80480
O874        O  0.33673334  0.75898393  0.74279043    -0.57970
O875        O  0.33793093  0.76930177  0.81349770    -0.48880
C876        C  0.30794437  0.72715943  0.79440142     0.73140
O877        O  0.31837930  0.72609112  0.79797412    -0.43740
C878        C  0.32880773  0.74710315  0.92322673     0.77850
O879        O  0.34462664  0.74010728  0.77919195    -0.55600
O880        O  0.32701530  0.75494970  0.89368596    -0.45690
O881        O  0.35332795  0.75379461  0.84277885    -0.52030
C882        C  0.33959824  0.76996116  0.76424169     0.88030
O883        O  0.30983188  0.73881859  0.80140170    -0.53920
O884        O  0.33199526  0.73939095  0.90005013    -0.57220
In885      In  0.41596739  0.66827181  0.81907346     1.36870
C886        C  0.41955239  0.67148500  0.92247651     0.80480
O887        O  0.42856981  0.69025229  0.79855932    -0.57970
O888        O  0.40725653  0.68163826  0.80229990    -0.48880
C889        C  0.43131115  0.66195554  0.76020637     0.73140
O890        O  0.43225969  0.66287187  0.80971783    -0.43740
C891        C  0.39288145  0.64561350  0.80564818     0.77850
O892        O  0.42911359  0.67383533  0.89141089    -0.55600
O893        O  0.39593672  0.65599265  0.77866593    -0.45690
O894        O  0.40826736  0.66757990  0.90091071    -0.52030
C895        C  0.41851657  0.69199914  0.79539584     0.88030
O896        O  0.42288248  0.66481193  0.74044144    -0.53920
O897        O  0.40160366  0.64676165  0.83893514    -0.57220
In898      In  0.41352078  0.74676180  0.82055263     1.36870
C899        C  0.39017945  0.74630673  0.80893697     0.80480
O900        O  0.40524202  0.73767002  0.89953265    -0.57970
O901        O  0.42534017  0.75411574  0.89551575    -0.48880
C902        C  0.41759274  0.72663230  0.79508467     0.73140
O903        O  0.40605987  0.72555702  0.79565402    -0.43740
C904        C  0.42878727  0.76886746  0.76489876     0.77850
O905        O  0.39344715  0.73936885  0.78055202    -0.55600
O906        O  0.42961966  0.76826568  0.81427755    -0.45690
O907        O  0.39882612  0.75352911  0.84261758    -0.52030
C908        C  0.41582195  0.74565054  0.92383543     0.88030
O909        O  0.42721204  0.73816615  0.80496197    -0.53920
O910        O  0.42054440  0.75795735  0.74343594    -0.57220
In911      In  0.25450098  0.58898838  0.82027372     1.36870
C912        C  0.25381110  0.61154969  0.80241408     0.80480
O913        O  0.24001505  0.57914039  0.75248175    -0.57970
O914        O  0.23304477  0.57279233  0.83063073    -0.48880
C915        C  0.27564792  0.58641352  0.79047611     0.73140
O916        O  0.27653152  0.59756818  0.79975780    -0.43740
C917        C  0.25654919  0.58691839  0.92327607     0.77850
O918        O  0.25845158  0.60679640  0.76879293    -0.55600
O919        O  0.24943745  0.57688374  0.89489545    -0.45690
O920        O  0.24943908  0.60475615  0.84412085    -0.52030
C921        C  0.23023905  0.57165133  0.78231453     0.88030
O922        O  0.26385978  0.57658001  0.79332094    -0.53920
O923        O  0.26291988  0.59792852  0.89904388    -0.57220
In924      In  0.33432102  0.58767254  0.81874505     1.36870
C925        C  0.35744111  0.61040033  0.80499238     0.80480
O926        O  0.33252952  0.59592707  0.89654067    -0.57970
O927        O  0.33200679  0.57713939  0.89597840    -0.48880
C928        C  0.31067325  0.58542774  0.78946269     0.73140
O929        O  0.32142450  0.59645007  0.79225478    -0.43740
C930        C  0.34089745  0.57053822  0.77486533     0.77850
O931        O  0.34832019  0.60588684  0.77034229    -0.55600
O932        O  0.33568850  0.56879025  0.81996052    -0.45690
O933        O  0.35489835  0.60322363  0.84571382    -0.52030
C934        C  0.33170273  0.58619133  0.92272814     0.88030
O935        O  0.31201769  0.57535371  0.79837834    -0.53920
O936        O  0.34188890  0.58058738  0.75027743    -0.57220
In937      In  0.46050314  0.00009417  0.33262414     1.36870
C938        C  0.44264965  0.97586274  0.29640972     0.80480
O939        O  0.47462671  0.99962591  0.27112194    -0.57970
O940        O  0.47929168  0.99966524  0.35249238    -0.48880
C941        C  0.46682677  0.02423655  0.29417837     0.73140
O942        O  0.45576644  0.01389937  0.28360121    -0.43740
C943        C  0.45417715  0.00056003  0.43370209     0.77850
O944        O  0.44320445  0.98643501  0.27893989    -0.55600
O945        O  0.46485592  0.00091839  0.41877580    -0.45690
O946        O  0.45068796  0.97762264  0.33348023    -0.52030
C947        C  0.48260597  0.99948963  0.30530862     0.88030
O948        O  0.47426061  0.02232063  0.32554390    -0.53920
O949        O  0.44646048  0.00003384  0.39691767    -0.57220
In950      In  0.53939628  0.99820664  0.33307503     1.36870
C951        C  0.55719086  0.02227951  0.29475975     0.80480
O952        O  0.52513486  0.99840058  0.27148779    -0.57970
O953        O  0.52061345  0.99866394  0.35280830    -0.48880
C954        C  0.53304967  0.97395337  0.29728934     0.73140
O955        O  0.54392194  0.98430879  0.28458279    -0.43740
C956        C  0.54616714  0.99815998  0.43378699     0.77850
O957        O  0.55664183  0.01165980  0.27842455    -0.55600
O958        O  0.53544786  0.99781050  0.41942668    -0.45690
O959        O  0.54915516  0.02064937  0.33171754    -0.52030
C960        C  0.51721092  0.99865436  0.30558759     0.88030
O961        O  0.52580856  0.97591896  0.32938248    -0.53920
O962        O  0.55369038  0.99848243  0.39663134    -0.57220
In963      In  0.46124207  0.00071564  0.69263328     1.36870
C964        C  0.46780727  0.02498814  0.72876002     0.80480
O965        O  0.47548152  0.00051856  0.75438939    -0.57970
O966        O  0.48000984  0.00019797  0.67313391    -0.48880
C967        C  0.44323473  0.97677438  0.73125836     0.73140
O968        O  0.44345037  0.98740306  0.74529625    -0.43740
C969        C  0.45447975  0.00071289  0.59175516     0.77850
O970        O  0.45718458  0.01459607  0.74321977    -0.55600
O971        O  0.46502872  0.00072751  0.60622717    -0.45690
O972        O  0.47468172  0.02305120  0.69476330    -0.52030
C973        C  0.48339292  0.00020672  0.72037917     0.88030
O974        O  0.45170771  0.97831353  0.69626738    -0.53920
O975        O  0.44709976  0.00070263  0.62887403    -0.57220
In976      In  0.54003638  0.99867672  0.69266141     1.36870
C977        C  0.53388623  0.97472939  0.73168876     0.80480
O978        O  0.52595622  0.99914368  0.75446751    -0.57970
O979        O  0.52109201  0.99886508  0.67324638    -0.48880
C980        C  0.55811184  0.02262519  0.72927261     0.73140
O981        O  0.55796500  0.01203424  0.74376636    -0.43740
C982        C  0.54649478  0.99843889  0.59166249     0.77850
O983        O  0.54450175  0.98524747  0.74464968    -0.55600
O984        O  0.53598816  0.99844972  0.60645656    -0.45690
O985        O  0.52680621  0.97635987  0.69757064    -0.52030
C986        C  0.51787624  0.99915168  0.72047161     0.88030
O987        O  0.54953245  0.02105309  0.69473412    -0.53920
O988        O  0.55399021  0.99853912  0.62851480    -0.57220
In989      In  0.49672309  0.91267119  0.19703074     1.36870
C990        C  0.51452512  0.93680746  0.23389051     0.80480
O991        O  0.51091794  0.91306028  0.13292069    -0.57970
O992        O  0.49285140  0.91286330  0.11086139    -0.48880
C993        C  0.49094151  0.88847124  0.23247547     0.73140
O994        O  0.50116814  0.89902767  0.24807661    -0.43740
C995        C  0.47422574  0.91241813  0.22553400     0.77850
O996        O  0.51462427  0.92631377  0.24818305    -0.55600
O997        O  0.47757540  0.91251086  0.17821235    -0.45690
O998        O  0.50578800  0.93502944  0.19977031    -0.52030
C999        C  0.50345539  0.91303871  0.09608045     0.88030
O1000       O  0.48404658  0.89024225  0.19793317    -0.53920
O1001       O  0.48233043  0.91236296  0.25931672    -0.57220
In1002     In  0.41793695  0.91445531  0.19583484     1.36870
C1003       C  0.42437152  0.93865419  0.23295524     0.80480
O1004       O  0.43167286  0.91361664  0.25849068    -0.57970
O1005       O  0.43662511  0.91367179  0.17751833    -0.48880
C1006       C  0.39946393  0.89023443  0.23074254     0.73140
O1007       O  0.40012171  0.90083806  0.24791021    -0.43740
C1008       C  0.41184574  0.91516781  0.09465859     0.77850
O1009       O  0.41345782  0.92828492  0.24516690    -0.55600
O1010       O  0.42245556  0.91539014  0.10975433    -0.45690
O1011       O  0.43164425  0.93672751  0.20088333    -0.52030
C1012       C  0.43971310  0.91336221  0.22494272     0.88030
O1013       O  0.40778874  0.89198026  0.19480531    -0.53920
O1014       O  0.40411312  0.91466778  0.13129360    -0.57220
In1015     In  0.37514951  0.82971309  0.33877730     1.36870
C1016       C  0.35775947  0.80450544  0.31269503     0.80480
O1017       O  0.38870320  0.82756337  0.27959010    -0.57970
O1018       O  0.39416711  0.83001978  0.36086042    -0.48880
C1019       C  0.38093462  0.85322245  0.29598259     0.73140
O1020       O  0.36973361  0.84276700  0.28802615    -0.43740
C1021       C  0.36851395  0.83180895  0.43688003     0.77850
O1022       O  0.35955234  0.81434894  0.28429246    -0.55600
O1023       O  0.37950638  0.83244316  0.42447452    -0.45690
O1024       O  0.36422627  0.80763966  0.35532518    -0.52030
C1025       C  0.39699953  0.82844165  0.31441972     0.88030
O1026       O  0.38880599  0.85167066  0.32621614    -0.53920
O1027       O  0.36074489  0.83034649  0.39882912    -0.57220
In1028     In  0.45441498  0.82817534  0.33992321     1.36870
C1029       C  0.47243791  0.85157057  0.29793688     0.80480
O1030       O  0.43895856  0.82651848  0.28048865    -0.57970
O1031       O  0.43597330  0.82904480  0.36168691    -0.48880
C1032       C  0.44621338  0.80295518  0.31304676     0.73140
O1033       O  0.45412224  0.81276967  0.28433358    -0.43740
C1034       C  0.46304356  0.82997238  0.43794747     0.77850
O1035       O  0.47300259  0.84100219  0.28985895    -0.55600
O1036       O  0.45262085  0.83052264  0.42572388    -0.45690
O1037       O  0.46306793  0.85018510  0.32804303    -0.52030
C1038       C  0.43166300  0.82765512  0.31512167     0.88030
O1039       O  0.44326717  0.80611155  0.35647420    -0.53920
O1040       O  0.46943196  0.82869000  0.39977032    -0.57220
In1041     In  0.41855786  0.91569775  0.83530236     1.36870
C1042       C  0.40060678  0.89187107  0.79675616     0.80480
O1043       O  0.43282860  0.91555561  0.77362120    -0.57970
O1044       O  0.43725207  0.91505680  0.85492467    -0.48880
C1045       C  0.42482137  0.93990340  0.79827439     0.73140
O1046       O  0.41386439  0.92955892  0.78684743    -0.43740
C1047       C  0.41204951  0.91564722  0.93649086     0.77850
O1048       O  0.40119273  0.90259433  0.78119595    -0.55600
O1049       O  0.42272278  0.91601080  0.92147983    -0.45690
O1050       O  0.40869034  0.89325649  0.83315975    -0.52030
C1051       C  0.44070025  0.91517819  0.80771952     0.88030
O1052       O  0.43219794  0.93797135  0.82990790    -0.53920
O1053       O  0.40442980  0.91535507  0.89976849    -0.57220
In1054     In  0.37528290  0.83099528  0.69237016     1.36870
C1055       C  0.38211395  0.85516574  0.73008609     0.80480
O1056       O  0.38968036  0.82930244  0.74887473    -0.57970
O1057       O  0.39310018  0.82937897  0.66629170    -0.48880
C1058       C  0.35715710  0.80737244  0.73282786     0.73140
O1059       O  0.36069429  0.81829991  0.75600208    -0.43740
C1060       C  0.36845538  0.83213938  0.59314729     0.77850
O1061       O  0.37033238  0.84535366  0.73511052    -0.55600
O1062       O  0.37916872  0.83227399  0.60609291    -0.45690
O1063       O  0.39013089  0.85273806  0.70473111    -0.52030
C1064       C  0.39693398  0.82883388  0.71233651     0.88030
O1065       O  0.36232493  0.80857729  0.68782310    -0.53920
O1066       O  0.36099805  0.83153693  0.63106261    -0.57220
In1067     In  0.45551991  0.82981734  0.69280546     1.36870
C1068       C  0.44952227  0.80609350  0.73333171     0.80480
O1069       O  0.43944773  0.82823576  0.74905813    -0.57970
O1070       O  0.43655441  0.82921801  0.66653955    -0.48880
C1071       C  0.47318803  0.85373871  0.73082217     0.73140
O1072       O  0.47478805  0.84369041  0.73629412    -0.43740
C1073       C  0.46345833  0.83053197  0.59394556     0.77850
O1074       O  0.45704328  0.81695393  0.75661734    -0.55600
O1075       O  0.45285895  0.83067927  0.60638676    -0.45690
O1076       O  0.44568442  0.80740749  0.68819498    -0.52030
C1077       C  0.43202460  0.82838752  0.71248208     0.88030
O1078       O  0.46296094  0.85167555  0.70471664    -0.53920
O1079       O  0.47034310  0.83012452  0.63218756    -0.57220
In1080     In  0.49748662  0.91402590  0.83699545     1.36870
C1081       C  0.51551919  0.93803144  0.79963513     0.80480
O1082       O  0.48341578  0.91436736  0.77480258    -0.57970
O1083       O  0.47861993  0.91440726  0.85591611    -0.48640
C1084       C  0.49151820  0.89017456  0.79874311     0.73140
O1085       O  0.50238877  0.90065226  0.78730307    -0.43740
C1086       C  0.50373172  0.91350223  0.93809327     0.77850
O1087       O  0.51512911  0.92742134  0.78428725    -0.55600
O1088       O  0.49312670  0.91329636  0.92311916    -0.45690
O1089       O  0.50720324  0.93644714  0.83539091    -0.52030
C1090       C  0.47536298  0.91450322  0.80856795     0.88030
O1091       O  0.48408571  0.89178484  0.83108100    -0.53920
O1092       O  0.51140756  0.91392873  0.90138657    -0.57220
C1093       C  0.48189235  0.86652449  0.75433547    -0.10380
C1094       C  0.48736923  0.87740684  0.77483993    -0.11940
C1095       C  0.40889840  0.82802216  0.72158910    -0.10380
C1096       C  0.41939530  0.82789375  0.72161975    -0.11940
C1097       C  0.38646876  0.86808962  0.75311070    -0.10380
C1098       C  0.39199470  0.87904783  0.77311164    -0.11940
C1099       C  0.46327376  0.91473986  0.79530117    -0.10380
C1100       C  0.45281183  0.91493754  0.79500219    -0.11940
C1101       C  0.46686434  0.83050114  0.49211591    -0.10380
C1102       C  0.46698773  0.83065782  0.53961962    -0.11940
C1103       C  0.36524621  0.83245186  0.53864284    -0.10380
C1104       C  0.36527831  0.83237323  0.49111317    -0.11940
C1105       C  0.41932524  0.82749024  0.30337052    -0.10380
C1106       C  0.40890789  0.82774169  0.30309329    -0.11940
C1107       C  0.40906276  0.91539272  0.03940165    -0.10380
C1108       C  0.40910598  0.91552729  0.99174393    -0.11940
C1109       C  0.39054522  0.87712560  0.25231388    -0.10380
C1110       C  0.38493579  0.86600462  0.27151971    -0.11940
C1111       C  0.50647670  0.91319557  0.04092849    -0.10380
C1112       C  0.50655384  0.91332060  0.99329322    -0.11940
C1113       C  0.48132167  0.86429887  0.27355327    -0.10380
C1114       C  0.48682884  0.87539791  0.25423141    -0.11940
C1115       C  0.45163330  0.91280786  0.23846589    -0.10380
C1116       C  0.46204524  0.91250113  0.23867074    -0.11940
C1117       C  0.52962494  0.96188446  0.75573760    -0.10380
C1118       C  0.52414452  0.95093351  0.77620288    -0.11940
C1119       C  0.49544424  0.99985500  0.73327688    -0.10380
C1120       C  0.50583419  0.99951582  0.73333194    -0.11940
C1121       C  0.42910544  0.95287670  0.77515160    -0.10380
C1122       C  0.43459811  0.96388930  0.75505765    -0.11940
C1123       C  0.54926644  0.99823828  0.48884459    -0.10380
C1124       C  0.54937133  0.99832612  0.53648700    -0.11940
C1125       C  0.52870378  0.96091122  0.27521020    -0.10380
C1126       C  0.52316020  0.94980927  0.25633039    -0.11940
C1127       C  0.45132710  0.00066294  0.48896054    -0.10380
C1128       C  0.45142749  0.00070045  0.53663266    -0.11940
C1129       C  0.50511130  0.99891593  0.29279128    -0.10380
C1130       C  0.49467840  0.99916851  0.29267411    -0.11940
C1131       C  0.43413810  0.96279189  0.27415992    -0.10380
C1132       C  0.42868823  0.95167682  0.25531938    -0.11940
C1133       C  0.29779213  0.58463283  0.78086057    -0.10380
C1134       C  0.28737165  0.58501809  0.78117091    -0.11940
C1135       C  0.43617624  0.78147846  0.73491809    -0.13540
C1136       C  0.44486661  0.79298349  0.75880354    -0.28710
H1137       H  0.43348162  0.78152550  0.69385610     0.15480
H1138       H  0.44757630  0.79290030  0.79982320     0.16060
C1139       C  0.36978429  0.62291186  0.79948917    -0.10380
C1140       C  0.38029044  0.63338135  0.79989618    -0.11940
C1141       C  0.41968527  0.70490650  0.78748753    -0.10380
C1142       C  0.41941819  0.71526991  0.78730056    -0.11940
C1143       C  0.34528038  0.78267116  0.73441463    -0.13540
C1144       C  0.34843160  0.79429470  0.75825586    -0.28710
H1145       H  0.34803977  0.78264027  0.69344529     0.15480
H1146       H  0.34563049  0.79429472  0.79918829     0.16060
C1147       C  0.37747142  0.74595421  0.80410270    -0.10380
C1148       C  0.36695136  0.74606636  0.80390642    -0.11940
C1149       C  0.25318901  0.63421041  0.79551065    -0.10380
C1150       C  0.25362927  0.62390411  0.79501417    -0.11940
C1151       C  0.28425305  0.70524438  0.78622221    -0.10380
C1152       C  0.29481420  0.71569002  0.78628862    -0.11940
C1153       C  0.34525760  0.78703761  0.24700634    -0.13540
C1154       C  0.34953844  0.79037799  0.29675924    -0.28710
H1155       H  0.34689073  0.79481618  0.21859394     0.15480
H1156       H  0.34839813  0.78267718  0.32470933     0.16060
C1157       C  0.32775860  0.74717398  0.97940942    -0.10380
C1158       C  0.32791168  0.74731856  0.02683790    -0.11940
C1159       C  0.25322087  0.67378163  0.98188051    -0.10380
C1160       C  0.25337635  0.67399156  0.02931347    -0.11940
C1161       C  0.29603978  0.71727332  0.22260188    -0.10380
C1162       C  0.28550571  0.70680689  0.22246033    -0.11940
C1163       C  0.42121483  0.67290630  0.97852735    -0.10380
C1164       C  0.42136290  0.67326774  0.02600616    -0.11940
C1165       C  0.44014991  0.78561984  0.24596756    -0.13540
C1166       C  0.44001202  0.78885573  0.29655280    -0.28710
H1167       H  0.44589257  0.79343866  0.21715408     0.15480
H1168       H  0.43383049  0.78113068  0.32504442     0.16060
C1169       C  0.41673405  0.74536734  0.97994998    -0.10380
C1170       C  0.41671862  0.74543044  0.02733243    -0.11940
C1171       C  0.37849091  0.74808287  0.21238355    -0.10380
C1172       C  0.36799398  0.74829565  0.21229038    -0.11940
C1173       C  0.41972406  0.70595159  0.22032729    -0.10380
C1174       C  0.41926399  0.71622250  0.22169246    -0.11940
C1175       C  0.33093591  0.58566516  0.97905746    -0.10380
C1176       C  0.33110485  0.58576266  0.02649238    -0.11940
C1177       C  0.37012976  0.62465080  0.20407200    -0.10380
C1178       C  0.38066345  0.63505425  0.20408371    -0.11940
C1179       C  0.25692456  0.58601581  0.97942606    -0.10380
C1180       C  0.25679013  0.58600619  0.02684074    -0.11940
C1181       C  0.25531258  0.63528889  0.20271748    -0.10380
C1182       C  0.25558049  0.62492869  0.20217638    -0.11940
C1183       C  0.29804719  0.58417083  0.21932406    -0.10380
C1184       C  0.28750476  0.58423879  0.21953183    -0.11940
C1185       C  0.47786916  0.04912923  0.76989392    -0.10380
C1186       C  0.47228796  0.03803772  0.75095906    -0.11940
C1187       C  0.51997060  0.13442927  0.75057242    -0.10380
C1188       C  0.51439932  0.12343729  0.77079064    -0.11940
C1189       C  0.58201382  0.17065284  0.71446434    -0.10380
C1190       C  0.59251014  0.17053758  0.71525425    -0.11940
C1191       C  0.57220486  0.04647693  0.77198853    -0.10380
C1192       C  0.56676990  0.03549511  0.75229340    -0.11940
C1193       C  0.61529261  0.13076466  0.74650307    -0.10380
C1194       C  0.60970766  0.11982845  0.76694877    -0.11940
C1195       C  0.54917475  0.08576884  0.78730553    -0.10380
C1196       C  0.53879602  0.08612806  0.78703088    -0.11940
C1197       C  0.57119124  0.04633788  0.25184662    -0.10380
C1198       C  0.56571288  0.03526536  0.27145823    -0.11940
C1199       C  0.59105319  0.08294823  0.03455661    -0.10380
C1200       C  0.59108347  0.08290750  0.98693688    -0.11940
C1201       C  0.53314755  0.16730737  0.52945805    -0.10380
C1202       C  0.53304045  0.16728429  0.48199139    -0.11940
C1203       C  0.63590197  0.16613280  0.53182368    -0.10380
C1204       C  0.63561530  0.16593593  0.48434604    -0.11940
C1205       C  0.60983381  0.12065079  0.24577449    -0.10380
C1206       C  0.61552700  0.13169933  0.26500998    -0.11940
C1207       C  0.59036398  0.16792533  0.29230058    -0.10380
C1208       C  0.57999401  0.16826956  0.29213153    -0.11940
C1209       C  0.47672842  0.04825288  0.25081709    -0.10380
C1210       C  0.47115651  0.03719846  0.27066274    -0.11940
C1211       C  0.49466298  0.08572322  0.98534407    -0.10380
C1212       C  0.49451383  0.08554118  0.03297918    -0.11940
C1213       C  0.51872719  0.13372074  0.26378714    -0.10380
C1214       C  0.51323919  0.12264260  0.24475586    -0.11940
C1215       C  0.53782253  0.08520702  0.23340812    -0.10380
C1216       C  0.54825341  0.08493712  0.23353953    -0.11940
C1217       C  0.99980069  0.50207046  0.72141777    -0.10380
C1218       C  0.00008338  0.49173107  0.72125853    -0.11940
C1219       C  0.99849093  0.54528000  0.47659036    -0.10380
C1220       C  0.99845874  0.54528647  0.52426390    -0.11940
C1221       C  0.00100552  0.44833370  0.47683937    -0.10380
C1222       C  0.00114537  0.44842027  0.52452278    -0.11940
C1223       C  0.00003026  0.49177707  0.27991302    -0.10380
C1224       C  0.99981128  0.50214998  0.27999465    -0.11940
C1225       C  0.04719323  0.56898802  0.75910606    -0.10380
C1226       C  0.03599323  0.56311044  0.74016618    -0.11940
C1227       C  0.12230872  0.60931936  0.76103672    -0.10380
C1228       C  0.13345399  0.61518887  0.74144937    -0.11940
C1229       C  0.20986550  0.65110459  0.71395236    -0.13540
C1230       C  0.21344770  0.65600941  0.76278004    -0.28710
H1231       H  0.21750934  0.65182969  0.68641851     0.15480
H1232       H  0.20573499  0.65477771  0.79098493     0.16060
C1233       C  0.21258493  0.56301287  0.71400792    -0.13540
C1234       C  0.21637670  0.56263976  0.76373531    -0.28710
H1235       H  0.22003903  0.56951728  0.68518816     0.15480
H1236       H  0.20883216  0.55654233  0.79301831     0.16060
C1237       C  0.17187216  0.59197730  0.71100769    -0.10380
C1238       C  0.17218730  0.58167167  0.71092689    -0.11940
C1239       C  0.05026024  0.47610009  0.75922804    -0.10380
C1240       C  0.03908692  0.47013744  0.74009653    -0.11940
C1241       C  0.13640534  0.52005830  0.74101633    -0.10380
C1242       C  0.12525501  0.51434468  0.76060321    -0.11940
C1243       C  0.08732858  0.53765040  0.77521552    -0.10380
C1244       C  0.08701384  0.54797919  0.77530885    -0.11940
C1245       C  0.03572683  0.56343589  0.25922793    -0.10380
C1246       C  0.04681069  0.56927267  0.23926199    -0.11940
C1247       C  0.08431798  0.58985669  0.97489432    -0.10380
C1248       C  0.08421680  0.58982311  0.02256168    -0.11940
C1249       C  0.16786834  0.63586173  0.52133926    -0.10380
C1250       C  0.16804089  0.63603027  0.47380099    -0.11940
C1251       C  0.13235501  0.61405862  0.26019536    -0.10380
C1252       C  0.12126962  0.60826265  0.24049024    -0.11940
C1253       C  0.21853066  0.65639813  0.27690881    -0.13540
C1254       C  0.20671225  0.65340675  0.25409716    -0.28710
H1255       H  0.21873917  0.65340554  0.31744569     0.15480
H1256       H  0.20653010  0.65642146  0.21357542     0.16060
C1257       C  0.17103245  0.53571964  0.47356924    -0.10380
C1258       C  0.17090257  0.53566239  0.52110803    -0.11940
C1259       C  0.22077622  0.56677766  0.27389186    -0.13540
C1260       C  0.20907499  0.55805195  0.25085069    -0.28710
H1261       H  0.22093527  0.56944172  0.31502854     0.15480
H1262       H  0.20895557  0.55537996  0.20974764     0.16060
C1263       C  0.17368469  0.59324233  0.29134342    -0.10380
C1264       C  0.17395783  0.58289597  0.29128805    -0.11940
C1265       C  0.04944810  0.47560232  0.23940645    -0.10380
C1266       C  0.03832266  0.46965776  0.25902858    -0.11940
C1267       C  0.08692821  0.49437105  0.02332389    -0.10380
C1268       C  0.08704199  0.49439880  0.97565436    -0.11940
C1269       C  0.12397373  0.51434833  0.24092668    -0.10380
C1270       C  0.13507183  0.52016727  0.26047759    -0.11940
C1271       C  0.08611455  0.54752270  0.22300061    -0.10380
C1272       C  0.08631978  0.53714549  0.22302271    -0.11940
C1273       C  0.82757872  0.40373783  0.71209745    -0.10380
C1274       C  0.82763089  0.41423543  0.71125831    -0.11940
C1275       C  0.95289583  0.42526663  0.76087039    -0.10380
C1276       C  0.96406733  0.43094791  0.74148213    -0.11940
C1277       C  0.87825550  0.38685014  0.75822407    -0.10380
C1278       C  0.86717763  0.38123135  0.73838100    -0.11940
C1279       C  0.96096591  0.52415661  0.74051547    -0.10380
C1280       C  0.94976727  0.51835141  0.75965296    -0.11940
C1281       C  0.87480075  0.48110008  0.76171599    -0.10380
C1282       C  0.86371682  0.47555427  0.74187160    -0.11940
C1283       C  0.91310296  0.44712872  0.77638107    -0.10380
C1284       C  0.91269761  0.45740735  0.77620932    -0.11940
C1285       C  0.82896809  0.46140813  0.47397622    -0.10380
C1286       C  0.82922584  0.46144840  0.52144136    -0.11940
C1287       C  0.83018779  0.36012230  0.47753860    -0.10380
C1288       C  0.83016837  0.36006361  0.52511542    -0.11940
C1289       C  0.82596553  0.40338659  0.29225582    -0.10380
C1290       C  0.82578779  0.41378179  0.29211218    -0.11940
C1291       C  0.95028554  0.51845627  0.23944720    -0.10380
C1292       C  0.96135334  0.52425171  0.25928901    -0.11940
C1293       C  0.91272347  0.50042910  0.02337795    -0.10380
C1294       C  0.91258826  0.50040816  0.97574246    -0.11940
C1295       C  0.87608800  0.48124546  0.24141769    -0.10380
C1296       C  0.86502444  0.47573513  0.26136912    -0.11940
C1297       C  0.95257815  0.42471945  0.24018715    -0.10380
C1298       C  0.96368679  0.43044885  0.25986816    -0.11940
C1299       C  0.91527973  0.40477389  0.02416994    -0.10380
C1300       C  0.91529362  0.40482159  0.97648874    -0.11940
C1301       C  0.87792338  0.38684148  0.24298796    -0.10380
C1302       C  0.86683469  0.38136312  0.26297576    -0.11940
C1303       C  0.91334849  0.44689851  0.22356168    -0.10380
C1304       C  0.91314642  0.45727585  0.22354736    -0.11940
C1305       C  0.65580007  0.21577786  0.72861046    -0.13540
C1306       C  0.65279921  0.20409684  0.75198301    -0.28710
H1307       H  0.65317689  0.21600578  0.68757676     0.15480
H1308       H  0.65546692  0.20390726  0.79298517     0.16060
C1309       C  0.78117743  0.34155515  0.72714545    -0.13540
C1310       C  0.79296015  0.34385887  0.74820988    -0.28710
H1311       H  0.78084348  0.34474734  0.68704213     0.15480
H1312       H  0.79324864  0.34058237  0.78820872     0.16060
C1313       C  0.71519378  0.29230434  0.78655662    -0.10380
C1314       C  0.70470029  0.28184481  0.78602685    -0.11940
C1315       C  0.78367246  0.43660456  0.75486733    -0.13540
C1316       C  0.78780476  0.43353374  0.71029563    -0.28710
H1317       H  0.79083060  0.44483470  0.77916362     0.15480
H1318       H  0.78067729  0.42510871  0.68668963     0.16060
C1319       C  0.74594814  0.37460509  0.80379942    -0.10380
C1320       C  0.74590127  0.36408274  0.80384093    -0.11940
C1321       C  0.70519336  0.41674013  0.78322895    -0.10380
C1322       C  0.71565711  0.41653555  0.78271676    -0.11940
C1323       C  0.62350045  0.36568748  0.79771949    -0.10380
C1324       C  0.63382665  0.37629016  0.79781215    -0.11940
C1325       C  0.56019718  0.21356968  0.76495047    -0.13540
C1326       C  0.56148192  0.20969914  0.71657182    -0.28710
H1327       H  0.55359250  0.20616250  0.79365057     0.15480
H1328       H  0.56846127  0.21704043  0.68849886     0.16060
C1329       C  0.62166658  0.25070743  0.79618710    -0.10380
C1330       C  0.63221347  0.25065339  0.79587148    -0.11940
C1331       C  0.58215911  0.29381045  0.77940953    -0.10380
C1332       C  0.58197797  0.28322291  0.77978361    -0.11940
C1333       C  0.58460728  0.32608172  0.97484688    -0.10380
C1334       C  0.58451253  0.32592314  0.02233453    -0.11940
C1335       C  0.56014713  0.21367816  0.24654118    -0.13540
C1336       C  0.56194874  0.20945679  0.29363531    -0.28710
H1337       H  0.55283321  0.20653248  0.21909103     0.15480
H1338       H  0.56961916  0.21652426  0.32026231     0.16060
C1339       C  0.58663512  0.25579105  0.98030960    -0.10380
C1340       C  0.58676982  0.25569324  0.02766690    -0.11940
C1341       C  0.58318823  0.28358698  0.22498428    -0.10380
C1342       C  0.58315405  0.29410458  0.22386675    -0.11940
C1343       C  0.67176094  0.41660109  0.97715493    -0.10380
C1344       C  0.67157510  0.41648477  0.02464357    -0.11940
C1345       C  0.62214616  0.36528864  0.20601237    -0.10380
C1346       C  0.63254702  0.37585302  0.20593697    -0.11940
C1347       C  0.77934726  0.43035632  0.27787583    -0.13540
C1348       C  0.79097989  0.43951855  0.25539808    -0.28710
H1349       H  0.77922587  0.42709303  0.31825013     0.15480
H1350       H  0.79107167  0.44275066  0.21499477     0.16060
C1351       C  0.74399952  0.41113535  0.02890641    -0.10380
C1352       C  0.74413430  0.41131575  0.98156418    -0.11940
C1353       C  0.70406275  0.41587445  0.21852515    -0.10380
C1354       C  0.71441738  0.41548275  0.21999028    -0.11940
C1355       C  0.65736970  0.21156340  0.25207648    -0.13540
C1356       C  0.64952739  0.20735156  0.29517399    -0.28710
H1357       H  0.65890618  0.20450792  0.22879330     0.15480
H1358       H  0.64777781  0.21439357  0.31763244     0.16060
C1359       C  0.67072695  0.24962866  0.02337387    -0.10380
C1360       C  0.67076352  0.24982547  0.97596455    -0.11940
C1361       C  0.63233988  0.24873568  0.20562758    -0.10380
C1362       C  0.62192886  0.24909974  0.20640397    -0.11940
C1363       C  0.79283890  0.34368036  0.25483553    -0.13540
C1364       C  0.78097227  0.34099782  0.27634022    -0.28710
H1365       H  0.79318530  0.34053612  0.21481254     0.15480
H1366       H  0.78059626  0.34410992  0.31639514     0.16060
C1367       C  0.74774573  0.32429597  0.02601218    -0.10380
C1368       C  0.74784991  0.32457604  0.97854487    -0.11940
C1369       C  0.74444987  0.36204505  0.20060775    -0.10380
C1370       C  0.74428035  0.37244667  0.20111688    -0.11940
C1371       C  0.71495388  0.29054632  0.21970526    -0.10380
C1372       C  0.70453607  0.27998896  0.22015486    -0.11940
C1373       C  0.49907654  0.49765202  0.71883261    -0.10380
C1374       C  0.50960587  0.50805715  0.71874610    -0.11940
C1375       C  0.55400059  0.55222721  0.52362149    -0.10380
C1376       C  0.55402210  0.55218880  0.47596509    -0.11940
C1377       C  0.45500120  0.45354071  0.47670456    -0.10380
C1378       C  0.45497343  0.45359021  0.52438843    -0.11940
C1379       C  0.49927983  0.49757799  0.28136495    -0.10380
C1380       C  0.50973268  0.50805957  0.28146076    -0.11940
C1381       C  0.57039694  0.53116952  0.74084735    -0.10380
C1382       C  0.57578768  0.52541346  0.76050762    -0.11940
C1383       C  0.61763263  0.48155897  0.73865337    -0.10380
C1384       C  0.61231139  0.48731745  0.75850329    -0.11940
C1385       C  0.65392206  0.44396122  0.74898189    -0.13540
C1386       C  0.65634267  0.43470012  0.72728193    -0.28710
H1387       H  0.65684235  0.44706491  0.78950924     0.15480
H1388       H  0.65349801  0.43163756  0.68666500     0.16060
C1389       C  0.55738821  0.34747924  0.75153959    -0.13540
C1390       C  0.56573852  0.34392945  0.72820723    -0.28710
H1391       H  0.55460945  0.34496380  0.79269512     0.15480
H1392       H  0.56850591  0.34641700  0.68702631     0.16060
C1393       C  0.58452478  0.40788249  0.71284538    -0.10380
C1394       C  0.59488180  0.41844179  0.71220350    -0.11940
C1395       C  0.48041894  0.43084299  0.76068239    -0.10380
C1396       C  0.47492014  0.43652573  0.74117212    -0.11940
C1397       C  0.51697001  0.39255912  0.76046359    -0.10380
C1398       C  0.52234554  0.38676983  0.74125956    -0.11940
C1399       C  0.54131170  0.45373367  0.77608162    -0.10380
C1400       C  0.55177549  0.46419314  0.77613257    -0.11940
C1401       C  0.57589834  0.52556061  0.23967800    -0.10380
C1402       C  0.57054835  0.53131049  0.25943603    -0.11940
C1403       C  0.59502011  0.50711084  0.02391046    -0.10380
C1404       C  0.59502475  0.50706400  0.97625635    -0.11940
C1405       C  0.63761107  0.46486271  0.47670169    -0.10380
C1406       C  0.63752755  0.46483930  0.52427325    -0.11940
C1407       C  0.61801351  0.48220016  0.26306874    -0.10380
C1408       C  0.61257783  0.48785449  0.24303471    -0.11940
C1409       C  0.65609454  0.43460379  0.27387333    -0.13540
C1410       C  0.65368462  0.44387565  0.25178065    -0.28710
H1411       H  0.65348996  0.43171849  0.31490072     0.15480
H1412       H  0.65642392  0.44683836  0.21089395     0.16060
C1413       C  0.53725530  0.36566784  0.48080828    -0.10380
C1414       C  0.53724791  0.36554101  0.52840299    -0.11940
C1415       C  0.56151862  0.34380359  0.24081607    -0.13540
C1416       C  0.56363359  0.34985107  0.28778067    -0.28710
H1417       H  0.55440595  0.34420557  0.21334567     0.15480
H1418       H  0.57109685  0.34982722  0.31442615     0.16060
C1419       C  0.58401672  0.40925147  0.28838319    -0.10380
C1420       C  0.59446699  0.41970105  0.28785005    -0.11940
C1421       C  0.48099100  0.43074057  0.24095795    -0.10380
C1422       C  0.47553111  0.43648108  0.26009119    -0.11940
C1423       C  0.49834646  0.41065860  0.97729831    -0.10380
C1424       C  0.49840666  0.41057377  0.02498599    -0.11940
C1425       C  0.51734357  0.39174572  0.24064189    -0.10380
C1426       C  0.52270103  0.38590787  0.26021826    -0.11940
C1427       C  0.54142211  0.45350781  0.22439748    -0.10380
C1428       C  0.55182312  0.46403543  0.22424957    -0.11940
C1429       C  0.43268941  0.48059454  0.75892011    -0.10380
C1430       C  0.43822337  0.47490654  0.73996244    -0.11940
C1431       C  0.38888783  0.52341738  0.74227235    -0.10380
C1432       C  0.39455055  0.51785493  0.76155893    -0.11940
C1433       C  0.34620324  0.56195342  0.75495159    -0.13540
C1434       C  0.35378027  0.56516691  0.71111558    -0.28710
H1435       H  0.34512958  0.55375106  0.77984167     0.15480
H1436       H  0.35508326  0.57358384  0.68702419     0.16060
C1437       C  0.44809689  0.65459038  0.74952479    -0.13540
C1438       C  0.43877009  0.65709431  0.72809769    -0.28710
H1439       H  0.45127756  0.65740953  0.79006659     0.15480
H1440       H  0.43566370  0.65439922  0.68741106     0.16060
C1441       C  0.41304978  0.58461424  0.71502563    -0.10380
C1442       C  0.42346111  0.59510356  0.71558371    -0.11940
C1443       C  0.53369420  0.56911470  0.74036899    -0.10380
C1444       C  0.52814407  0.57467452  0.76011034    -0.11940
C1445       C  0.48568881  0.61793343  0.73761023    -0.10380
C1446       C  0.49119638  0.61231691  0.75744190    -0.11940
C1447       C  0.46689461  0.55152863  0.77544420    -0.10380
C1448       C  0.45633490  0.54115767  0.77519499    -0.11940
C1449       C  0.36923302  0.53834071  0.52167358    -0.10380
C1450       C  0.36906644  0.53822746  0.47411386    -0.11940
C1451       C  0.35126557  0.55840664  0.25078415    -0.13540
C1452       C  0.34791316  0.56688137  0.27381963    -0.28710
H1453       H  0.34869441  0.55563220  0.20976750     0.15480
H1454       H  0.35043785  0.56963627  0.31487966     0.16060
C1455       C  0.46869218  0.63798402  0.47649745    -0.10380
C1456       C  0.46871673  0.63811919  0.52409713    -0.11940
C1457       C  0.43876341  0.65726048  0.27518350    -0.13540
C1458       C  0.44800891  0.65473095  0.25324314    -0.28710
H1459       H  0.43549310  0.65420392  0.31560100     0.15480
H1460       H  0.45131199  0.65783993  0.21289799     0.16060
C1461       C  0.41167696  0.58493996  0.28814946    -0.10380
C1462       C  0.42220799  0.59533090  0.28860814    -0.11940
C1463       C  0.43830580  0.47418492  0.25939344    -0.10380
C1464       C  0.43280665  0.47984182  0.23968733    -0.11940
C1465       C  0.41308497  0.49819906  0.97555838    -0.10380
C1466       C  0.41318048  0.49813030  0.02323754    -0.11940
C1467       C  0.38981687  0.52271261  0.26042463    -0.10380
C1468       C  0.39542936  0.51719343  0.24090981    -0.11940
C1469       C  0.53355028  0.56901574  0.25921905    -0.10380
C1470       C  0.52798115  0.57460470  0.23959362    -0.11940
C1471       C  0.51003545  0.59445466  0.02346830    -0.10380
C1472       C  0.51005552  0.59441295  0.97579839    -0.11940
C1473       C  0.48497569  0.61738351  0.26197989    -0.10380
C1474       C  0.49056779  0.61189209  0.24200610    -0.11940
C1475       C  0.46688302  0.55121603  0.22374238    -0.10380
C1476       C  0.45639854  0.54077733  0.22364196    -0.11940
loop_ 
_geom_bond_atom_site_label_1 
_geom_bond_atom_site_label_2 
_geom_bond_distance 
_geom_bond_site_symmetry_2 
_ccdc_geom_bond_type 
In1           O3   2.261       .  S
In1           O4   2.220       .  S
In1          O12   2.242       .  S
In1           O6   2.267       .  S
In1           O8   2.266       .  S
In1           O9   2.232       .  S
In1          O10   2.243       .  S
In1          O13   2.280       .  S
C2            O8   1.260       .  A
C2           O10   1.256       .  A
C2         C1470   1.438       .  S
O3           C11   1.260       .  A
O4           C11   1.257       .  A
C5           O12   1.256       .  A
C5            O6   1.260       .  A
C5         C1474   1.438       .  S
C7            O9   1.254       .  A
C7           O13   1.261       .  A
C7         C1471   1.439       .  S
C11        C1475   1.429       .  S
In14         O16   2.261       .  S
In14         O17   2.221       .  S
In14         O25   2.244       .  S
In14         O19   2.268       .  S
In14         O21   2.265       .  S
In14         O22   2.234       .  S
In14         O23   2.242       .  S
In14         O26   2.279       .  S
C15          O21   1.260       .  A
C15          O23   1.257       .  A
C15        C1468   1.438       .  S
O16          C24   1.260       .  A
O17          C24   1.257       .  A
C18          O25   1.256       .  A
C18          O19   1.260       .  A
C18        C1464   1.439       .  S
C20          O22   1.255       .  A
C20          O26   1.261       .  A
C20        C1466   1.439       .  S
C24        C1476   1.429       .  S
In27         O29   2.255       .  S
In27         O30   2.227       .  S
In27         O38   2.240       .  S
In27         O32   2.269       .  S
In27         O34   2.252       .  S
In27         O35   2.227       .  S
In27         O36   2.245       .  S
In27         O39   2.273       .  S
C28          O34   1.260       .  A
C28          O36   1.259       .  A
C28        C1458   1.473       .  S
O29          C37   1.260       .  A
O30          C37   1.258       .  A
C31          O38   1.256       .  A
C31          O32   1.260       .  A
C31        C1473   1.438       .  S
C33          O35   1.256       .  A
C33          O39   1.261       .  A
C33        C1455   1.436       .  S
C37        C1462   1.429       .  S
In40         O42   2.256       .  S
In40         O43   2.226       .  S
In40         O51   2.247       .  S
In40         O45   2.250       .  S
In40         O47   2.267       .  S
In40         O48   2.223       .  S
In40         O49   2.238       .  S
In40         O52   2.272       .  S
C41          O47   1.260       .  A
C41          O49   1.256       .  A
C41        C1467   1.437       .  S
O42          C50   1.260       .  A
O43          C50   1.258       .  A
C44          O51   1.259       .  A
C44          O45   1.259       .  A
C44        C1451   1.472       .  S
C46          O48   1.255       .  A
C46          O52   1.261       .  A
C46        C1450   1.435       .  S
C50        C1461   1.429       .  S
In53         O55   2.262       .  S
In53         O56   2.222       .  S
In53         O64   2.243       .  S
In53         O58   2.266       .  S
In53         O60   2.265       .  S
In53         O61   2.234       .  S
In53         O62   2.241       .  S
In53         O65   2.279       .  S
C54          O60   1.260       .  A
C54          O62   1.257       .  A
C54        C1446   1.437       .  S
O55          C63   1.260       .  A
O56          C63   1.257       .  A
C57          O64   1.257       .  A
C57          O58   1.260       .  A
C57        C1444   1.438       .  S
C59          O61   1.255       .  A
C59          O65   1.261       .  A
C59        C1472   1.439       .  S
C63        C1447   1.430       .  S
In66         O68   2.255       .  S
In66         O69   2.223       .  S
In66         O77   2.247       .  S
In66         O71   2.251       .  S
In66         O73   2.266       .  S
In66         O74   2.225       .  S
In66         O75   2.236       .  S
In66         O78   2.274       .  S
C67          O73   1.261       .  A
C67          O75   1.256       .  A
C67        C1445   1.437       .  S
O68          C76   1.260       .  A
O69          C76   1.258       .  A
C70          O77   1.259       .  A
C70          O71   1.259       .  A
C70        C1437   1.472       .  S
C72          O74   1.255       .  A
C72          O78   1.262       .  A
C72        C1456   1.436       .  S
C76        C1442   1.428       .  S
In79         O81   2.254       .  S
In79         O82   2.218       .  S
In79         O90   2.235       .  S
In79         O84   2.277       .  S
In79         O86   2.270       .  S
In79         O87   2.220       .  S
In79         O88   2.232       .  S
In79         O91   2.268       .  S
C80          O86   1.266       .  A
C80          O88   1.257       .  A
C80        C1434   1.476       .  S
O81          C89   1.260       .  A
O82          C89   1.258       .  A
C83          O90   1.256       .  A
C83          O84   1.264       .  A
C83        C1431   1.442       .  S
C85          O87   1.257       .  A
C85          O91   1.262       .  A
C85        C1449   1.435       .  S
C89        C1441   1.428       .  S
In92         O94   2.263       .  S
In92         O95   2.220       .  S
In92        O103   2.247       .  S
In92         O97   2.275       .  S
In92         O99   2.272       .  S
In92        O100   2.232       .  S
In92        O101   2.247       .  S
In92        O104   2.280       .  S
C93          O99   1.261       .  A
C93         O101   1.256       .  A
C93        C1429   1.442       .  S
O94         C102   1.261       .  A
O95         C102   1.257       .  A
C96         O103   1.256       .  A
C96          O97   1.261       .  A
C96        C1432   1.443       .  S
C98         O100   1.255       .  A
C98         O104   1.261       .  A
C98        C1465   1.439       .  S
C102       C1448   1.430       .  S
In105       O107   2.262       .  S
In105       O108   2.221       .  S
In105       O116   2.248       .  S
In105       O110   2.276       .  S
In105       O112   2.271       .  S
In105       O113   2.234       .  S
In105       O114   2.247       .  S
In105       O117   2.280       .  S
C106        O112   1.261       .  A
C106        O114   1.257       .  A
C106       C1421   1.442       .  S
O107        C115   1.261       .  A
O108        C115   1.257       .  A
C109        O116   1.256       .  A
C109        O110   1.261       .  A
C109       C1425   1.444       .  S
C111        O113   1.255       .  A
C111        O117   1.261       .  A
C111       C1424   1.440       .  S
C115       C1427   1.430       .  S
In118       O120   2.254       .  S
In118       O121   2.218       .  S
In118       O129   2.237       .  S
In118       O123   2.280       .  S
In118       O125   2.273       .  S
In118       O126   2.219       .  S
In118       O127   2.237       .  S
In118       O130   2.271       .  S
C119        O125   1.265       .  A
C119        O127   1.257       .  A
C119       C1416   1.478       .  S
O120        C128   1.260       .  A
O121        C128   1.258       .  A
C122        O129   1.256       .  A
C122        O123   1.264       .  A
C122       C1426   1.444       .  S
C124        O126   1.256       .  A
C124        O130   1.263       .  A
C124       C1413   1.436       .  S
C128       C1419   1.427       .  S
In131       O133   2.270       .  S
In131       O134   2.224       .  S
In131       O142   2.234       .  S
In131       O136   2.264       .  S
In131       O138   2.248       .  S
In131       O139   2.224       .  S
In131       O140   2.241       .  S
In131       O143   2.253       .  S
C132        O138   1.259       .  A
C132        O140   1.259       .  A
C132       C1410   1.470       .  S
O133        C141   1.262       .  A
O134        C141   1.256       .  A
C135        O142   1.256       .  A
C135        O136   1.260       .  A
C135       C1407   1.435       .  S
C137        O139   1.258       .  A
C137        O143   1.259       .  A
C137       C1420   1.427       .  S
C141       C1405   1.435       .  S
In144       O146   2.263       .  S
In144       O147   2.222       .  S
In144       O155   2.242       .  S
In144       O149   2.266       .  S
In144       O151   2.262       .  S
In144       O152   2.232       .  S
In144       O153   2.241       .  S
In144       O156   2.279       .  S
C145        O151   1.259       .  A
C145        O153   1.257       .  A
C145       C1408   1.436       .  S
O146        C154   1.260       .  A
O147        C154   1.257       .  A
C148        O155   1.256       .  A
C148        O149   1.260       .  A
C148       C1401   1.438       .  S
C150        O152   1.254       .  A
C150        O156   1.261       .  A
C150       C1403   1.438       .  S
C154       C1428   1.430       .  S
In157       O159   2.262       .  S
In157       O160   2.220       .  S
In157       O168   2.245       .  S
In157       O162   2.268       .  S
In157       O164   2.267       .  S
In157       O165   2.234       .  S
In157       O166   2.242       .  S
In157       O169   2.280       .  S
C158        O164   1.260       .  A
C158        O166   1.256       .  A
C158       C1397   1.438       .  S
O159        C167   1.260       .  A
O160        C167   1.257       .  A
C161        O168   1.257       .  A
C161        O162   1.260       .  A
C161       C1395   1.440       .  S
C163        O165   1.255       .  A
C163        O169   1.261       .  A
C163       C1423   1.440       .  S
C167       C1399   1.429       .  S
In170       O172   2.256       .  S
In170       O173   2.227       .  S
In170       O181   2.248       .  S
In170       O175   2.252       .  S
In170       O177   2.268       .  S
In170       O178   2.224       .  S
In170       O179   2.238       .  S
In170       O182   2.273       .  S
C171        O177   1.261       .  A
C171        O179   1.256       .  A
C171       C1398   1.438       .  S
O172        C180   1.260       .  A
O173        C180   1.257       .  A
C174        O181   1.259       .  A
C174        O175   1.259       .  A
C174       C1389   1.473       .  S
C176        O178   1.256       .  A
C176        O182   1.262       .  A
C176       C1414   1.436       .  S
C180       C1393   1.429       .  S
In183       O185   2.254       .  S
In183       O186   2.227       .  S
In183       O194   2.237       .  S
In183       O188   2.266       .  S
In183       O190   2.248       .  S
In183       O191   2.226       .  S
In183       O192   2.239       .  S
In183       O195   2.270       .  S
C184        O190   1.260       .  A
C184        O192   1.259       .  A
C184       C1385   1.470       .  S
O185        C193   1.260       .  A
O186        C193   1.258       .  A
C187        O194   1.256       .  A
C187        O188   1.260       .  A
C187       C1383   1.436       .  S
C189        O191   1.256       .  A
C189        O195   1.261       .  A
C189       C1406   1.435       .  S
C193       C1394   1.429       .  S
In196       O198   2.261       .  S
In196       O199   2.221       .  S
In196       O207   2.240       .  S
In196       O201   2.263       .  S
In196       O203   2.266       .  S
In196       O204   2.232       .  S
In196       O205   2.241       .  S
In196       O208   2.278       .  S
C197        O203   1.260       .  A
C197        O205   1.256       .  A
C197       C1382   1.438       .  S
O198        C206   1.260       .  A
O199        C206   1.257       .  A
C200        O207   1.257       .  A
C200        O201   1.260       .  A
C200       C1384   1.436       .  S
C202        O204   1.255       .  A
C202        O208   1.261       .  A
C202       C1404   1.438       .  S
C206       C1400   1.430       .  S
In209       O211   2.262       .  S
In209       O212   2.223       .  S
In209       O220   2.245       .  S
In209       O214   2.269       .  S
In209       O216   2.272       .  S
In209       O217   2.232       .  S
In209       O218   2.247       .  S
In209       O221   2.282       .  S
C210        O216   1.260       .  A
C210        O218   1.256       .  A
C210       C1422   1.442       .  S
O211        C219   1.261       .  A
O212        C219   1.257       .  A
C213        O220   1.256       .  A
C213        O214   1.260       .  A
C213       C1463   1.440       .  S
C215        O217   1.254       .  A
C215        O221   1.261       .  A
C215       C1377   1.440       .  S
C219       C1379   1.430       .  S
In222       O224   2.261       .  S
In222       O225   2.224       .  S
In222       O233   2.242       .  S
In222       O227   2.266       .  S
In222       O229   2.267       .  S
In222       O230   2.230       .  S
In222       O231   2.243       .  S
In222       O234   2.280       .  S
C223        O229   1.260       .  A
C223        O231   1.256       .  A
C223       C1469   1.438       .  S
O224        C232   1.260       .  A
O225        C232   1.257       .  A
C226        O233   1.256       .  A
C226        O227   1.260       .  A
C226       C1402   1.438       .  S
C228        O230   1.254       .  A
C228        O234   1.261       .  A
C228       C1376   1.438       .  S
C232       C1380   1.431       .  S
In235       O237   2.261       .  S
In235       O238   2.223       .  S
In235       O246   2.244       .  S
In235       O240   2.271       .  S
In235       O242   2.271       .  S
In235       O243   2.232       .  S
In235       O244   2.248       .  S
In235       O247   2.281       .  S
C236        O242   1.260       .  A
C236        O244   1.257       .  A
C236       C1430   1.442       .  S
O237        C245   1.260       .  A
O238        C245   1.257       .  A
C239        O246   1.256       .  A
C239        O240   1.261       .  A
C239       C1396   1.440       .  S
C241        O243   1.255       .  A
C241        O247   1.261       .  A
C241       C1378   1.440       .  S
C245       C1373   1.430       .  S
In248       O250   2.261       .  S
In248       O251   2.223       .  S
In248       O259   2.242       .  S
In248       O253   2.268       .  S
In248       O255   2.265       .  S
In248       O256   2.230       .  S
In248       O257   2.243       .  S
In248       O260   2.280       .  S
C249        O255   1.260       .  A
C249        O257   1.257       .  A
C249       C1381   1.438       .  S
O250        C258   1.260       .  A
O251        C258   1.257       .  A
C252        O259   1.256       .  A
C252        O253   1.260       .  A
C252       C1443   1.438       .  S
C254        O256   1.254       .  A
C254        O260   1.261       .  A
C254       C1375   1.438       .  S
C258       C1374   1.430       .  S
In261       O263   2.252       .  S
In261       O264   2.240       .  S
In261       O272   2.261       .  S
In261       O266   2.240       .  S
In261       O268   2.247       .  S
In261       O269   2.250       .  S
In261       O270   2.236       .  S
In261       O273   2.236       .  S
C262        O268   1.260       .  A
C262        O270   1.259       .  A
C262       C1369   1.431       .  S
O263        C271   1.260       .  A
O264        C271   1.259       .  A
C265        O272   1.258       .  A
C265        O266   1.256       .  A
C265       C1371   1.435       .  S
C267        O269   1.259       .  A
C267        O273   1.258       .  A
C267       C1367   1.431       .  S
C271       C1364   1.473       .  S
In274       O276   2.242       .  S
In274       O277   2.238       .  S
In274       O285   2.263       .  S
In274       O279   2.244       .  S
In274       O281   2.257       .  S
In274       O282   2.243       .  S
In274       O283   2.244       .  S
In274       O286   2.249       .  S
C275        O281   1.260       .  A
C275        O283   1.258       .  A
C275       C1361   1.437       .  S
O276        C284   1.259       .  A
O277        C284   1.258       .  A
C278        O285   1.257       .  A
C278        O279   1.255       .  A
C278       C1372   1.435       .  S
C280        O282   1.257       .  A
C280        O286   1.262       .  A
C280       C1355   1.472       .  S
C284       C1359   1.428       .  S
In287       O289   2.233       .  S
In287       O290   2.236       .  S
In287       O298   2.248       .  S
In287       O292   2.234       .  S
In287       O294   2.246       .  S
In287       O295   2.231       .  S
In287       O296   2.234       .  S
In287       O299   2.248       .  S
C288        O294   1.260       .  A
C288        O296   1.258       .  A
C288       C1370   1.430       .  S
O289        C297   1.258       .  A
O290        C297   1.259       .  A
C291        O298   1.258       .  A
C291        O292   1.257       .  A
C291       C1354   1.429       .  S
C293        O295   1.259       .  A
C293        O299   1.260       .  A
C293       C1347   1.469       .  S
C297       C1351   1.425       .  S
In300       O302   2.255       .  S
In300       O303   2.233       .  S
In300       O311   2.249       .  S
In300       O305   2.237       .  S
In300       O307   2.251       .  S
In300       O308   2.250       .  S
In300       O309   2.239       .  S
In300       O312   2.238       .  S
C301        O307   1.259       .  A
C301        O309   1.258       .  A
C301       C1344   1.432       .  S
O302        C310   1.258       .  A
O303        C310   1.256       .  A
C304        O311   1.260       .  A
C304        O305   1.260       .  A
C304       C1409   1.470       .  S
C306        O308   1.260       .  A
C306        O312   1.259       .  A
C306       C1346   1.434       .  S
C310       C1353   1.429       .  S
In313       O315   2.260       .  S
In313       O316   2.238       .  S
In313       O324   2.264       .  S
In313       O318   2.254       .  S
In313       O320   2.260       .  S
In313       O321   2.232       .  S
In313       O322   2.240       .  S
In313       O325   2.241       .  S
C314        O320   1.261       .  A
C314        O322   1.258       .  A
C314       C1362   1.437       .  S
O315        C323   1.263       .  A
O316        C323   1.256       .  A
C317        O324   1.257       .  A
C317        O318   1.256       .  A
C317       C1341   1.440       .  S
C319        O321   1.258       .  A
C319        O325   1.259       .  A
C319       C1340   1.426       .  S
C323       C1335   1.474       .  S
In326       O328   2.241       .  S
In326       O329   2.246       .  S
In326       O337   2.273       .  S
In326       O331   2.251       .  S
In326       O333   2.258       .  S
In326       O334   2.246       .  S
In326       O335   2.232       .  S
In326       O338   2.267       .  S
C327        O333   1.262       .  A
C327        O335   1.258       .  A
C327       C1345   1.434       .  S
O328        C336   1.258       .  A
O329        C336   1.259       .  A
C330        O337   1.258       .  A
C330        O331   1.255       .  A
C330       C1342   1.440       .  S
C332        O334   1.257       .  A
C332        O338   1.263       .  A
C332       C1415   1.479       .  S
C336       C1334   1.431       .  S
In339       O341   2.239       .  S
In339       O342   2.234       .  S
In339       O350   2.259       .  S
In339       O344   2.241       .  S
In339       O346   2.253       .  S
In339       O347   2.234       .  S
In339       O348   2.233       .  S
In339       O351   2.255       .  S
C340        O346   1.261       .  A
C340        O348   1.258       .  A
C340       C1329   1.432       .  S
O341        C349   1.258       .  A
O342        C349   1.258       .  A
C343        O350   1.257       .  A
C343        O344   1.255       .  A
C343       C1332   1.433       .  S
C345        O347   1.256       .  A
C345        O351   1.263       .  A
C345       C1325   1.471       .  S
C349       C1339   1.426       .  S
In352       O354   2.251       .  S
In352       O355   2.241       .  S
In352       O363   2.255       .  S
In352       O357   2.239       .  S
In352       O359   2.249       .  S
In352       O360   2.247       .  S
In352       O361   2.233       .  S
In352       O364   2.240       .  S
C353        O359   1.260       .  A
C353        O361   1.258       .  A
C353       C1323   1.431       .  S
O354        C362   1.260       .  A
O355        C362   1.260       .  A
C356        O363   1.259       .  A
C356        O357   1.257       .  A
C356       C1331   1.433       .  S
C358        O360   1.260       .  A
C358        O364   1.258       .  A
C358       C1333   1.432       .  S
C362       C1390   1.473       .  S
In365       O367   2.248       .  S
In365       O368   2.237       .  S
In365       O376   2.253       .  S
In365       O370   2.240       .  S
In365       O372   2.255       .  S
In365       O373   2.230       .  S
In365       O374   2.238       .  S
In365       O377   2.240       .  S
C366        O372   1.260       .  A
C366        O374   1.257       .  A
C366       C1319   1.433       .  S
O367        C375   1.262       .  A
O368        C375   1.256       .  A
C369        O376   1.257       .  A
C369        O370   1.256       .  A
C369       C1322   1.431       .  S
C371        O373   1.258       .  A
C371        O377   1.259       .  A
C371       C1352   1.425       .  S
C375       C1315   1.470       .  S
In378       O380   2.235       .  S
In378       O381   2.246       .  S
In378       O389   2.249       .  S
In378       O383   2.238       .  S
In378       O385   2.253       .  S
In378       O386   2.234       .  S
In378       O387   2.237       .  S
In378       O390   2.257       .  S
C379        O385   1.259       .  A
C379        O387   1.257       .  A
C379       C1343   1.432       .  S
O380        C388   1.259       .  A
O381        C388   1.260       .  A
C382        O389   1.260       .  A
C382        O383   1.260       .  A
C382       C1386   1.470       .  S
C384        O386   1.255       .  A
C384        O390   1.258       .  A
C384       C1321   1.431       .  S
C388       C1324   1.431       .  S
In391       O393   2.237       .  S
In391       O394   2.249       .  S
In391       O402   2.258       .  S
In391       O396   2.238       .  S
In391       O398   2.250       .  S
In391       O399   2.237       .  S
In391       O400   2.238       .  S
In391       O403   2.252       .  S
C392        O398   1.260       .  A
C392        O400   1.259       .  A
C392       C1320   1.433       .  S
O393        C401   1.258       .  A
O394        C401   1.259       .  A
C395        O402   1.258       .  A
C395        O396   1.256       .  A
C395       C1313   1.432       .  S
C397        O399   1.259       .  A
C397        O403   1.260       .  A
C397       C1309   1.472       .  S
C401       C1368   1.431       .  S
In404       O406   2.250       .  S
In404       O407   2.234       .  S
In404       O415   2.256       .  S
In404       O409   2.237       .  S
In404       O411   2.249       .  S
In404       O412   2.244       .  S
In404       O413   2.235       .  S
In404       O416   2.235       .  S
C405        O411   1.260       .  A
C405        O413   1.259       .  A
C405       C1330   1.432       .  S
O406        C414   1.260       .  A
O407        C414   1.259       .  A
C408        O415   1.258       .  A
C408        O409   1.256       .  A
C408       C1314   1.432       .  S
C410        O412   1.259       .  A
C410        O416   1.258       .  A
C410       C1360   1.428       .  S
C414       C1305   1.471       .  S
In417       O419   2.259       .  S
In417       O420   2.221       .  S
In417       O428   2.242       .  S
In417       O422   2.270       .  S
In417       O424   2.265       .  S
In417       O425   2.233       .  S
In417       O426   2.243       .  S
In417       O429   2.279       .  S
C418        O424   1.260       .  A
C418        O426   1.257       .  A
C418       C1301   1.438       .  S
O419        C427   1.260       .  A
O420        C427   1.258       .  A
C421        O428   1.256       .  A
C421        O422   1.261       .  A
C421       C1297   1.440       .  S
C423        O425   1.255       .  A
C423        O429   1.261       .  A
C423       C1299   1.439       .  S
C427       C1303   1.429       .  S
In430       O432   2.261       .  S
In430       O433   2.220       .  S
In430       O441   2.238       .  S
In430       O435   2.260       .  S
In430       O437   2.263       .  S
In430       O438   2.232       .  S
In430       O439   2.242       .  S
In430       O442   2.277       .  S
C431        O437   1.259       .  A
C431        O439   1.257       .  A
C431       C1291   1.437       .  S
O432        C440   1.260       .  A
O433        C440   1.257       .  A
C434        O441   1.256       .  A
C434        O435   1.259       .  A
C434       C1295   1.434       .  S
C436        O438   1.254       .  A
C436        O442   1.261       .  A
C436       C1293   1.438       .  S
C440       C1304   1.429       .  S
In443       O445   2.256       .  S
In443       O446   2.227       .  S
In443       O454   2.246       .  S
In443       O448   2.249       .  S
In443       O450   2.267       .  S
In443       O451   2.225       .  S
In443       O452   2.241       .  S
In443       O455   2.273       .  S
C444        O450   1.260       .  A
C444        O452   1.256       .  A
C444       C1302   1.438       .  S
O445        C453   1.260       .  A
O446        C453   1.258       .  A
C447        O454   1.259       .  A
C447        O448   1.260       .  A
C447       C1363   1.472       .  S
C449        O451   1.255       .  A
C449        O455   1.261       .  A
C449       C1287   1.435       .  S
C453       C1289   1.430       .  S
In456       O458   2.256       .  S
In456       O459   2.228       .  S
In456       O467   2.235       .  S
In456       O461   2.259       .  S
In456       O463   2.244       .  S
In456       O464   2.218       .  S
In456       O465   2.240       .  S
In456       O468   2.268       .  S
C457        O463   1.259       .  A
C457        O465   1.259       .  A
C457       C1348   1.468       .  S
O458        C466   1.260       .  A
O459        C466   1.258       .  A
C460        O467   1.256       .  A
C460        O461   1.260       .  A
C460       C1296   1.434       .  S
C462        O464   1.255       .  A
C462        O468   1.261       .  A
C462       C1285   1.431       .  S
C466       C1290   1.430       .  S
In469       O471   2.262       .  S
In469       O472   2.220       .  S
In469       O480   2.245       .  S
In469       O474   2.270       .  S
In469       O476   2.267       .  S
In469       O477   2.231       .  S
In469       O478   2.244       .  S
In469       O481   2.277       .  S
C470        O476   1.260       .  A
C470        O478   1.256       .  A
C470       C1281   1.439       .  S
O471        C479   1.261       .  A
O472        C479   1.257       .  A
C473        O480   1.256       .  A
C473        O474   1.261       .  A
C473       C1280   1.441       .  S
C475        O477   1.255       .  A
C475        O481   1.261       .  A
C475       C1294   1.438       .  S
C479       C1284   1.430       .  S
In482       O484   2.261       .  S
In482       O485   2.222       .  S
In482       O493   2.243       .  S
In482       O487   2.265       .  S
In482       O489   2.270       .  S
In482       O490   2.233       .  S
In482       O491   2.244       .  S
In482       O494   2.280       .  S
C483        O489   1.260       .  A
C483        O491   1.256       .  A
C483       C1275   1.440       .  S
O484        C492   1.260       .  A
O485        C492   1.257       .  A
C486        O493   1.257       .  A
C486        O487   1.260       .  A
C486       C1277   1.438       .  S
C488        O490   1.255       .  A
C488        O494   1.261       .  A
C488       C1300   1.439       .  S
C492       C1283   1.430       .  S
In495       O497   2.255       .  S
In495       O498   2.223       .  S
In495       O506   2.239       .  S
In495       O500   2.266       .  S
In495       O502   2.249       .  S
In495       O503   2.223       .  S
In495       O504   2.246       .  S
In495       O507   2.273       .  S
C496        O502   1.259       .  A
C496        O504   1.259       .  A
C496       C1310   1.471       .  S
O497        C505   1.260       .  A
O498        C505   1.257       .  A
C499        O506   1.256       .  A
C499        O500   1.260       .  A
C499       C1278   1.438       .  S
C501        O503   1.255       .  A
C501        O507   1.261       .  A
C501       C1288   1.435       .  S
C505       C1273   1.428       .  S
In508       O510   2.253       .  S
In508       O511   2.221       .  S
In508       O519   2.226       .  S
In508       O513   2.254       .  S
In508       O515   2.269       .  S
In508       O516   2.213       .  S
In508       O517   2.231       .  S
In508       O520   2.264       .  S
C509        O515   1.263       .  A
C509        O517   1.256       .  A
C509       C1282   1.438       .  S
O510        C518   1.260       .  A
O511        C518   1.258       .  A
C512        O519   1.257       .  A
C512        O513   1.265       .  A
C512       C1316   1.469       .  S
C514        O516   1.257       .  A
C514        O520   1.262       .  A
C514       C1286   1.431       .  S
C518       C1274   1.428       .  S
In521       O523   2.261       .  S
In521       O524   2.221       .  S
In521       O532   2.241       .  S
In521       O526   2.264       .  S
In521       O528   2.268       .  S
In521       O529   2.233       .  S
In521       O530   2.243       .  S
In521       O533   2.278       .  S
C522        O528   1.260       .  A
C522        O530   1.256       .  A
C522       C1265   1.439       .  S
O523        C531   1.260       .  A
O524        C531   1.257       .  A
C525        O532   1.257       .  A
C525        O526   1.260       .  A
C525       C1269   1.437       .  S
C527        O529   1.255       .  A
C527        O533   1.261       .  A
C527       C1267   1.439       .  S
C531       C1272   1.429       .  S
In534       O536   2.254       .  S
In534       O537   2.228       .  S
In534       O545   2.238       .  S
In534       O539   2.266       .  S
In534       O541   2.248       .  S
In534       O542   2.222       .  S
In534       O543   2.247       .  S
In534       O546   2.271       .  S
C535        O541   1.259       .  A
C535        O543   1.259       .  A
C535       C1260   1.471       .  S
O536        C544   1.260       .  A
O537        C544   1.258       .  A
C538        O545   1.256       .  A
C538        O539   1.260       .  A
C538       C1270   1.437       .  S
C540        O542   1.256       .  A
C540        O546   1.261       .  A
C540       C1257   1.434       .  S
C544       C1264   1.430       .  S
In547       O549   2.255       .  S
In547       O550   2.228       .  S
In547       O558   2.248       .  S
In547       O552   2.251       .  S
In547       O554   2.266       .  S
In547       O555   2.221       .  S
In547       O556   2.239       .  S
In547       O559   2.272       .  S
C548        O554   1.260       .  A
C548        O556   1.256       .  A
C548       C1251   1.437       .  S
O549        C557   1.260       .  A
O550        C557   1.258       .  A
C551        O558   1.259       .  A
C551        O552   1.260       .  A
C551       C1254   1.473       .  S
C553        O555   1.255       .  A
C553        O559   1.261       .  A
C553       C1250   1.434       .  S
C557       C1263   1.430       .  S
In560       O562   2.261       .  S
In560       O563   2.220       .  S
In560       O571   2.242       .  S
In560       O565   2.267       .  S
In560       O567   2.265       .  S
In560       O568   2.232       .  S
In560       O569   2.242       .  S
In560       O572   2.279       .  S
C561        O567   1.260       .  A
C561        O569   1.257       .  A
C561       C1252   1.437       .  S
O562        C570   1.260       .  A
O563        C570   1.257       .  A
C564        O571   1.256       .  A
C564        O565   1.260       .  A
C564       C1246   1.438       .  S
C566        O568   1.254       .  A
C566        O572   1.261       .  A
C566       C1248   1.439       .  S
C570       C1271   1.429       .  S
In573       O575   2.263       .  S
In573       O576   2.221       .  S
In573       O584   2.246       .  S
In573       O578   2.273       .  S
In573       O580   2.270       .  S
In573       O581   2.233       .  S
In573       O582   2.247       .  S
In573       O585   2.279       .  S
C574        O580   1.260       .  A
C574        O582   1.257       .  A
C574       C1242   1.441       .  S
O575        C583   1.261       .  A
O576        C583   1.257       .  A
C577        O584   1.256       .  A
C577        O578   1.261       .  A
C577       C1239   1.442       .  S
C579        O581   1.254       .  A
C579        O585   1.261       .  A
C579       C1268   1.439       .  S
C583       C1243   1.431       .  S
In586       O588   2.252       .  S
In586       O589   2.219       .  S
In586       O597   2.236       .  S
In586       O591   2.260       .  S
In586       O593   2.275       .  S
In586       O594   2.216       .  S
In586       O595   2.232       .  S
In586       O598   2.266       .  S
C587        O593   1.264       .  A
C587        O595   1.256       .  A
C587       C1241   1.440       .  S
O588        C596   1.260       .  A
O589        C596   1.258       .  A
C590        O597   1.257       .  A
C590        O591   1.265       .  A
C590       C1233   1.474       .  S
C592        O594   1.257       .  A
C592        O598   1.263       .  A
C592       C1258   1.433       .  S
C596       C1238   1.426       .  S
In599       O601   2.252       .  S
In599       O602   2.219       .  S
In599       O610   2.233       .  S
In599       O604   2.275       .  S
In599       O606   2.260       .  S
In599       O607   2.216       .  S
In599       O608   2.236       .  S
In599       O611   2.267       .  S
C600        O606   1.265       .  A
C600        O608   1.257       .  A
C600       C1229   1.474       .  S
O601        C609   1.260       .  A
O602        C609   1.258       .  A
C603        O610   1.256       .  A
C603        O604   1.263       .  A
C603       C1228   1.441       .  S
C605        O607   1.257       .  A
C605        O611   1.263       .  A
C605       C1249   1.433       .  S
C609       C1237   1.426       .  S
In612       O614   2.262       .  S
In612       O615   2.222       .  S
In612       O623   2.245       .  S
In612       O617   2.271       .  S
In612       O619   2.272       .  S
In612       O620   2.232       .  S
In612       O621   2.246       .  S
In612       O624   2.278       .  S
C613        O619   1.261       .  A
C613        O621   1.257       .  A
C613       C1225   1.442       .  S
O614        C622   1.261       .  A
O615        C622   1.257       .  A
C616        O623   1.256       .  A
C616        O617   1.261       .  A
C616       C1227   1.441       .  S
C618        O620   1.255       .  A
C618        O624   1.261       .  A
C618       C1247   1.439       .  S
C622       C1244   1.431       .  S
In625       O627   2.261       .  S
In625       O628   2.222       .  S
In625       O636   2.244   1_455  S
In625       O630   2.271   1_455  S
In625       O632   2.267       .  S
In625       O633   2.232   1_455  S
In625       O634   2.245       .  S
In625       O637   2.281       .  S
C626        O632   1.260       .  A
C626        O634   1.257       .  A
C626       C1266   1.439       .  S
O627        C635   1.260       .  A
O628        C635   1.257       .  A
C629        O636   1.256       .  A
C629        O630   1.260       .  A
C629       C1298   1.440       .  S
C631        O633   1.254   1_455  A
C631        O637   1.261       .  A
C631       C1221   1.440       .  S
C635       C1223   1.430       .  S
In638       O640   2.260       .  S
In638       O641   2.223       .  S
In638       O649   2.242   1_655  S
In638       O643   2.267   1_655  S
In638       O645   2.264       .  S
In638       O646   2.232       .  S
In638       O647   2.243       .  S
In638       O650   2.280       .  S
C639        O645   1.260       .  A
C639        O647   1.257       .  A
C639       C1292   1.437       .  S
O640        C648   1.260       .  A
O641        C648   1.257       .  A
C642        O649   1.256       .  A
C642        O643   1.260       .  A
C642       C1245   1.438       .  S
C644        O646   1.255       .  A
C644        O650   1.261       .  A
C644       C1219   1.439       .  S
C648       C1224   1.430       .  S
In651       O653   2.260       .  S
In651       O654   2.220       .  S
In651       O662   2.245       .  S
In651       O656   2.271       .  S
In651       O658   2.272   1_655  S
In651       O659   2.231       .  S
In651       O660   2.246   1_655  S
In651       O663   2.281       .  S
C652        O658   1.261       .  A
C652        O660   1.256       .  A
C652       C1226   1.442       .  S
O653        C661   1.261       .  A
O654        C661   1.257       .  A
C655        O662   1.256       .  A
C655        O656   1.261       .  A
C655       C1279   1.441       .  S
C657        O659   1.254       .  A
C657        O663   1.261       .  A
C657       C1220   1.439       .  S
C661       C1217   1.429       .  S
In664       O666   2.259       .  S
In664       O667   2.222       .  S
In664       O675   2.245       .  S
In664       O669   2.272       .  S
In664       O671   2.271   1_455  S
In664       O672   2.232       .  S
In664       O673   2.244   1_455  S
In664       O676   2.281       .  S
C665        O671   1.261       .  A
C665        O673   1.256       .  A
C665       C1276   1.440       .  S
O666        C674   1.260       .  A
O667        C674   1.258       .  A
C668        O675   1.256       .  A
C668        O669   1.261       .  A
C668       C1240   1.442       .  S
C670        O672   1.255       .  A
C670        O676   1.262       .  A
C670       C1222   1.440       .  S
C674       C1218   1.430       .  S
In677       O679   2.264       .  S
In677       O680   2.222       .  S
In677       O688   2.246       .  S
In677       O682   2.269       .  S
In677       O684   2.268       .  S
In677       O685   2.231       .  S
In677       O686   2.242       .  S
In677       O689   2.277       .  S
C678        O684   1.261       .  A
C678        O686   1.256       .  A
C678       C1214   1.439       .  S
O679        C687   1.261       .  A
O680        C687   1.257       .  A
C681        O688   1.257       .  A
C681        O682   1.260       .  A
C681       C1209   1.441       .  S
C683        O685   1.255       .  A
C683        O689   1.261       .  A
C683       C1212   1.438       .  S
C687       C1215   1.431       .  S
In690       O692   2.253       .  S
In690       O693   2.218       .  S
In690       O701   2.229       .  S
In690       O695   2.268       .  S
In690       O697   2.260       .  S
In690       O698   2.215       .  S
In690       O699   2.226       .  S
In690       O702   2.263       .  S
C691        O697   1.266       .  A
C691        O699   1.257       .  A
C691       C1356   1.471       .  S
O692        C700   1.260       .  A
O693        C700   1.258       .  A
C694        O701   1.256       .  A
C694        O695   1.263       .  A
C694       C1206   1.438       .  S
C696        O698   1.257       .  A
C696        O702   1.262       .  A
C696       C1204   1.432       .  S
C700       C1207   1.427       .  S
In703       O705   2.252       .  S
In703       O706   2.218       .  S
In703       O714   2.232       .  S
In703       O708   2.261       .  S
In703       O710   2.270       .  S
In703       O711   2.211       .  S
In703       O712   2.227       .  S
In703       O715   2.263       .  S
C704        O710   1.264       .  A
C704        O712   1.256       .  A
C704       C1213   1.438       .  S
O705        C713   1.260       .  A
O706        C713   1.258       .  A
C707        O714   1.257       .  A
C707        O708   1.265       .  A
C707       C1336   1.473       .  S
C709        O711   1.257       .  A
C709        O715   1.263       .  A
C709       C1202   1.431       .  S
C713       C1208   1.427       .  S
In716       O718   2.263       .  S
In716       O719   2.222       .  S
In716       O727   2.242       .  S
In716       O721   2.266       .  S
In716       O723   2.268       .  S
In716       O724   2.230       .  S
In716       O725   2.244       .  S
In716       O728   2.275       .  S
C717        O723   1.260       .  A
C717        O725   1.256       .  A
C717       C1197   1.439       .  S
O718        C726   1.260       .  A
O719        C726   1.257       .  A
C720        O727   1.257       .  A
C720        O721   1.260       .  A
C720       C1205   1.438       .  S
C722        O724   1.255       .  A
C722        O728   1.261       .  A
C722       C1199   1.437       .  S
C726       C1216   1.431       .  S
In729       O731   2.260       .  S
In729       O732   2.223       .  S
In729       O740   2.238       .  S
In729       O734   2.263       .  S
In729       O736   2.257       .  S
In729       O737   2.231       .  S
In729       O738   2.239       .  S
In729       O741   2.275       .  S
C730        O736   1.259       .  A
C730        O738   1.257       .  A
C730       C1194   1.434       .  S
O731        C739   1.260       .  A
O732        C739   1.257       .  A
C733        O740   1.256       .  A
C733        O734   1.260       .  A
C733       C1191   1.435       .  S
C735        O737   1.255       .  A
C735        O741   1.261       .  A
C735       C1200   1.437       .  S
C739       C1195   1.430       .  S
In742       O744   2.254       .  S
In742       O745   2.225       .  S
In742       O753   2.243       .  S
In742       O747   2.245       .  S
In742       O749   2.261       .  S
In742       O750   2.218       .  S
In742       O751   2.233       .  S
In742       O754   2.268       .  S
C743        O749   1.260       .  A
C743        O751   1.256       .  A
C743       C1193   1.433       .  S
O744        C752   1.260       .  A
O745        C752   1.258       .  A
C746        O753   1.259       .  A
C746        O747   1.259       .  A
C746       C1306   1.470       .  S
C748        O750   1.255       .  A
C748        O754   1.261       .  A
C748       C1203   1.432       .  S
C752       C1190   1.428       .  S
In755       O757   2.253       .  S
In755       O758   2.223       .  S
In755       O766   2.230       .  S
In755       O760   2.269       .  S
In755       O762   2.254       .  S
In755       O763   2.213       .  S
In755       O764   2.233       .  S
In755       O767   2.263       .  S
C756        O762   1.264       .  A
C756        O764   1.257       .  A
C756       C1326   1.471       .  S
O757        C765   1.260       .  A
O758        C765   1.258       .  A
C759        O766   1.256       .  A
C759        O760   1.263       .  A
C759       C1187   1.437       .  S
C761        O763   1.257       .  A
C761        O767   1.262       .  A
C761       C1201   1.431       .  S
C765       C1189   1.428       .  S
In768       O770   2.262       .  S
In768       O771   2.220       .  S
In768       O779   2.241       .  S
In768       O773   2.267       .  S
In768       O775   2.267       .  S
In768       O776   2.230       .  S
In768       O777   2.243       .  S
In768       O780   2.276       .  S
C769        O775   1.260       .  A
C769        O777   1.257       .  A
C769       C1185   1.439       .  S
O770        C778   1.260       .  A
O771        C778   1.257       .  A
C772        O779   1.256       .  A
C772        O773   1.260       .  A
C772       C1188   1.438       .  S
C774        O776   1.255       .  A
C774        O780   1.261       .  A
C774       C1211   1.438       .  S
C778       C1196   1.430       .  S
In781       O783   2.235       .  S
In781       O784   2.244       .  S
In781       O792   2.254       .  S
In781       O786   2.238       .  S
In781       O788   2.248       .  S
In781       O789   2.238       .  S
In781       O790   2.237       .  S
In781       O793   2.252       .  S
C782        O788   1.260       .  A
C782        O790   1.259       .  A
C782       C1182   1.432       .  S
O783        C791   1.258       .  A
O784        C791   1.259       .  A
C785        O792   1.258       .  A
C785        O786   1.257       .  A
C785       C1184   1.432       .  S
C787        O789   1.259       .  A
C787        O793   1.260       .  A
C787       C1259   1.472       .  S
C791       C1180   1.429       .  S
In794       O796   2.251       .  S
In794       O797   2.240       .  S
In794       O805   2.256       .  S
In794       O799   2.237       .  S
In794       O801   2.247       .  S
In794       O802   2.246       .  S
In794       O803   2.233       .  S
In794       O806   2.236       .  S
C795        O801   1.260       .  A
C795        O803   1.259       .  A
C795       C1177   1.431       .  S
O796        C804   1.260       .  A
O797        C804   1.260       .  A
C798        O805   1.258       .  A
C798        O799   1.256       .  A
C798       C1183   1.432       .  S
C800        O802   1.260       .  A
C800        O806   1.258       .  A
C800       C1176   1.429       .  S
C804       C1452   1.472       .  S
In807       O809   2.259       .  S
In807       O810   2.230       .  S
In807       O818   2.258       .  S
In807       O812   2.247       .  S
In807       O814   2.264       .  S
In807       O815   2.237       .  S
In807       O816   2.237       .  S
In807       O819   2.236       .  S
C808        O814   1.262       .  A
C808        O816   1.258       .  A
C808       C1171   1.438       .  S
O809        C817   1.264       .  A
O810        C817   1.256       .  A
C811        O818   1.257       .  A
C811        O812   1.256       .  A
C811       C1174   1.435       .  S
C813        O815   1.258       .  A
C813        O819   1.259       .  A
C813       C1170   1.427       .  S
C817       C1165   1.471       .  S
In820       O822   2.235       .  S
In820       O823   2.247       .  S
In820       O831   2.252       .  S
In820       O825   2.243       .  S
In820       O827   2.254       .  S
In820       O828   2.239       .  S
In820       O829   2.236       .  S
In820       O832   2.264       .  S
C821        O827   1.260       .  A
C821        O829   1.257       .  A
C821       C1164   1.432       .  S
O822        C830   1.259       .  A
O823        C830   1.260       .  A
C824        O831   1.260       .  A
C824        O825   1.259       .  A
C824       C1457   1.473       .  S
C826        O828   1.255       .  A
C826        O832   1.259       .  A
C826       C1173   1.435       .  S
C830       C1178   1.431       .  S
In833       O835   2.255       .  S
In833       O836   2.242       .  S
In833       O844   2.264       .  S
In833       O838   2.242       .  S
In833       O840   2.249       .  S
In833       O841   2.248       .  S
In833       O842   2.237       .  S
In833       O845   2.235       .  S
C834        O840   1.260       .  A
C834        O842   1.258       .  A
C834       C1181   1.432       .  S
O835        C843   1.260       .  A
O836        C843   1.259       .  A
C837        O844   1.259       .  A
C837        O838   1.256       .  A
C837       C1162   1.437       .  S
C839        O841   1.260       .  A
C839        O845   1.258       .  A
C839       C1160   1.430       .  S
C843       C1253   1.474       .  S
In846       O848   2.238       .  S
In846       O849   2.241       .  S
In846       O857   2.266       .  S
In846       O851   2.247       .  S
In846       O853   2.263       .  S
In846       O854   2.234       .  S
In846       O855   2.239       .  S
In846       O858   2.263       .  S
C847        O853   1.261       .  A
C847        O855   1.258       .  A
C847       C1172   1.438       .  S
O848        C856   1.259       .  A
O849        C856   1.259       .  A
C850        O857   1.258       .  A
C850        O851   1.255       .  A
C850       C1161   1.437       .  S
C852        O854   1.256       .  A
C852        O858   1.263       .  A
C852       C1153   1.473       .  S
C856       C1158   1.429       .  S
In859       O861   2.237       .  S
In859       O862   2.244       .  S
In859       O870   2.269       .  S
In859       O864   2.246       .  S
In859       O866   2.263       .  S
In859       O867   2.236       .  S
In859       O868   2.240       .  S
In859       O871   2.263       .  S
C860        O866   1.261       .  A
C860        O868   1.258       .  A
C860       C1149   1.439       .  S
O861        C869   1.259       .  A
O862        C869   1.259       .  A
C863        O870   1.258       .  A
C863        O864   1.255       .  A
C863       C1151   1.437       .  S
C865        O867   1.256       .  A
C865        O871   1.263       .  A
C865       C1230   1.474       .  S
C869       C1159   1.430       .  S
In872       O874   2.255       .  S
In872       O875   2.241       .  S
In872       O883   2.264       .  S
In872       O877   2.243       .  S
In872       O879   2.250       .  S
In872       O880   2.246       .  S
In872       O881   2.236       .  S
In872       O884   2.235       .  S
C873        O879   1.260       .  A
C873        O881   1.258       .  A
C873       C1148   1.432       .  S
O874        C882   1.260       .  A
O875        C882   1.259       .  A
C876        O883   1.259       .  A
C876        O877   1.256       .  A
C876       C1152   1.437       .  S
C878        O880   1.260       .  A
C878        O884   1.258       .  A
C878       C1157   1.429       .  S
C882       C1143   1.474       .  S
In885       O887   2.257       .  S
In885       O888   2.238       .  S
In885       O896   2.251       .  S
In885       O890   2.240       .  S
In885       O892   2.252       .  S
In885       O893   2.251       .  S
In885       O894   2.238       .  S
In885       O897   2.239       .  S
C886        O892   1.259       .  A
C886        O894   1.258       .  A
C886       C1163   1.432       .  S
O887        C895   1.258       .  A
O888        C895   1.256       .  A
C889        O896   1.260       .  A
C889        O890   1.260       .  A
C889       C1438   1.472       .  S
C891        O893   1.260       .  A
C891        O897   1.259       .  A
C891       C1140   1.434       .  S
C895       C1141   1.432       .  S
In898       O900   2.234       .  S
In898       O901   2.241       .  S
In898       O909   2.254       .  S
In898       O903   2.238       .  S
In898       O905   2.249       .  S
In898       O906   2.235       .  S
In898       O907   2.237       .  S
In898       O910   2.251       .  S
C899        O905   1.260       .  A
C899        O907   1.258       .  A
C899       C1147   1.432       .  S
O900        C908   1.258       .  A
O901        C908   1.259       .  A
C902        O909   1.258       .  A
C902        O903   1.257       .  A
C902       C1142   1.432       .  S
C904        O906   1.259       .  A
C904        O910   1.260       .  A
C904       C1135   1.471       .  S
C908       C1169   1.427       .  S
In911       O913   2.263       .  S
In911       O914   2.235       .  S
In911       O922   2.267       .  S
In911       O916   2.255       .  S
In911       O918   2.268       .  S
In911       O919   2.240       .  S
In911       O920   2.238       .  S
In911       O923   2.237       .  S
C912        O918   1.262       .  A
C912        O920   1.257       .  A
C912       C1150   1.439       .  S
O913        C921   1.264       .  A
O914        C921   1.256       .  A
C915        O922   1.257       .  A
C915        O916   1.256       .  A
C915       C1134   1.440       .  S
C917        O919   1.259       .  A
C917        O923   1.259       .  A
C917       C1179   1.428       .  S
C921       C1234   1.474       .  S
In924       O926   2.244       .  S
In924       O927   2.241       .  S
In924       O935   2.273       .  S
In924       O929   2.252       .  S
In924       O931   2.257       .  S
In924       O932   2.247       .  S
In924       O933   2.240       .  S
In924       O936   2.263       .  S
C925        O931   1.261       .  A
C925        O933   1.258       .  A
C925       C1139   1.434       .  S
O926        C934   1.259       .  A
O927        C934   1.258       .  A
C928        O935   1.258       .  A
C928        O929   1.254       .  A
C928       C1133   1.440       .  S
C930        O932   1.256       .  A
C930        O936   1.262       .  A
C930       C1433   1.477       .  S
C934       C1175   1.429       .  S
In937       O939   2.260   1_545  S
In937       O940   2.221   1_545  S
In937       O948   2.243       .  S
In937       O942   2.273       .  S
In937       O944   2.270   1_545  S
In937       O945   2.231       .  S
In937       O946   2.246   1_545  S
In937       O949   2.281       .  S
C938        O944   1.261       .  A
C938        O946   1.257       .  A
C938       C1131   1.441       .  S
O939        C947   1.260       .  A
O940        C947   1.257       .  A
C941        O948   1.256       .  A
C941        O942   1.261       .  A
C941       C1210   1.441       .  S
C943        O945   1.254       .  A
C943        O949   1.262       .  A
C943       C1127   1.439       .  S
C947       C1130   1.429       .  S
In950       O952   2.259       .  S
In950       O953   2.222       .  S
In950       O961   2.243       .  S
In950       O955   2.269       .  S
In950       O957   2.267   1_565  S
In950       O958   2.230       .  S
In950       O959   2.244   1_565  S
In950       O962   2.278       .  S
C951        O957   1.261       .  A
C951        O959   1.257       .  A
C951       C1198   1.439       .  S
O952        C960   1.260       .  A
O953        C960   1.257       .  A
C954        O961   1.256       .  A
C954        O955   1.261       .  A
C954       C1125   1.440       .  S
C956        O958   1.255       .  A
C956        O962   1.261       .  A
C956       C1123   1.438       .  S
C960       C1129   1.429       .  S
In963       O965   2.261       .  S
In963       O966   2.222       .  S
In963       O974   2.243   1_545  S
In963       O968   2.267   1_545  S
In963       O970   2.267       .  S
In963       O971   2.232       .  S
In963       O972   2.243       .  S
In963       O975   2.280       .  S
C964        O970   1.260       .  A
C964        O972   1.256       .  A
C964       C1186   1.439       .  S
O965        C973   1.260       .  A
O966        C973   1.257       .  A
C967        O974   1.257       .  A
C967        O968   1.260       .  A
C967       C1122   1.439       .  S
C969        O971   1.255       .  A
C969        O975   1.261       .  A
C969       C1128   1.439       .  S
C973       C1119   1.430   1_545  S
In976       O978   2.261       .  S
In976       O979   2.222       .  S
In976       O987   2.240   1_565  S
In976       O981   2.262   1_565  S
In976       O983   2.263       .  S
In976       O984   2.230       .  S
In976       O985   2.241       .  S
In976       O988   2.279       .  S
C977        O983   1.259       .  A
C977        O985   1.256       .  A
C977       C1117   1.436       .  S
O978        C986   1.260       .  A
O979        C986   1.257       .  A
C980        O987   1.257       .  A
C980        O981   1.259       .  A
C980       C1192   1.436       .  S
C982        O984   1.254       .  A
C982        O988   1.261       .  A
C982       C1124   1.438       .  S
C986       C1120   1.430       .  S
In989       O991   2.277       .  S
In989       O992   2.230       .  S
In989      O1000   2.243       .  S
In989       O994   2.267       .  S
In989       O996   2.269       .  S
In989       O997   2.222       .  S
In989       O998   2.243       .  S
In989      O1001   2.263       .  S
C990        O996   1.261       .  A
C990        O998   1.256       .  A
C990       C1126   1.440       .  S
O991        C999   1.261       .  A
O992        C999   1.255       .  A
C993       O1000   1.256       .  A
C993        O994   1.260       .  A
C993       C1114   1.439       .  S
C995        O997   1.257       .  A
C995       O1001   1.261       .  A
C995       C1116   1.431       .  S
C999       C1111   1.437       .  S
In1002     O1004   2.263       .  S
In1002     O1005   2.223       .  S
In1002     O1013   2.244       .  S
In1002     O1007   2.268       .  S
In1002     O1009   2.272       .  S
In1002     O1010   2.231       .  S
In1002     O1011   2.245       .  S
In1002     O1014   2.277       .  S
C1003      O1009   1.261       .  A
C1003      O1011   1.256       .  A
C1003      C1132   1.441       .  S
O1004      C1012   1.261       .  A
O1005      C1012   1.257       .  A
C1006      O1013   1.257       .  A
C1006      O1007   1.261       .  A
C1006      C1109   1.440       .  S
C1008      O1010   1.255       .  A
C1008      O1014   1.261       .  A
C1008      C1107   1.438       .  S
C1012      C1115   1.431       .  S
In1015     O1017   2.253       .  S
In1015     O1018   2.219       .  S
In1015     O1026   2.232       .  S
In1015     O1020   2.273       .  S
In1015     O1022   2.257       .  S
In1015     O1023   2.217       .  S
In1015     O1024   2.238       .  S
In1015     O1027   2.265       .  S
C1016      O1022   1.264       .  A
C1016      O1024   1.257       .  A
C1016      C1154   1.474       .  S
O1017      C1025   1.260       .  A
O1018      C1025   1.258       .  A
C1019      O1026   1.256       .  A
C1019      O1020   1.263       .  A
C1019      C1110   1.439       .  S
C1021      O1023   1.257       .  A
C1021      O1027   1.263       .  A
C1021      C1104   1.433       .  S
C1025      C1106   1.426       .  S
In1028     O1030   2.252       .  S
In1028     O1031   2.220       .  S
In1028     O1039   2.237       .  S
In1028     O1033   2.253       .  S
In1028     O1035   2.271       .  S
In1028     O1036   2.214       .  S
In1028     O1037   2.229       .  S
In1028     O1040   2.264       .  S
C1029      O1035   1.263       .  A
C1029      O1037   1.256       .  A
C1029      C1113   1.438       .  S
O1030      C1038   1.259       .  A
O1031      C1038   1.258       .  A
C1032      O1039   1.257       .  A
C1032      O1033   1.264       .  A
C1032      C1166   1.472       .  S
C1034      O1036   1.257       .  A
C1034      O1040   1.263       .  A
C1034      C1101   1.432       .  S
C1038      C1105   1.426       .  S
In1041     O1043   2.261       .  S
In1041     O1044   2.221       .  S
In1041     O1052   2.243       .  S
In1041     O1046   2.267       .  S
In1041     O1048   2.264       .  S
In1041     O1049   2.231       .  S
In1041     O1050   2.243       .  S
In1041     O1053   2.280       .  S
C1042      O1048   1.260       .  A
C1042      O1050   1.257       .  A
C1042      C1098   1.437       .  S
O1043      C1051   1.260       .  A
O1044      C1051   1.257       .  A
C1045      O1052   1.256       .  A
C1045      O1046   1.260       .  A
C1045      C1121   1.439       .  S
C1047      O1049   1.254       .  A
C1047      O1053   1.261       .  A
C1047      C1108   1.438       .  S
C1051      C1100   1.430       .  S
In1054     O1056   2.255       .  S
In1054     O1057   2.227       .  S
In1054     O1065   2.248       .  S
In1054     O1059   2.251       .  S
In1054     O1061   2.267       .  S
In1054     O1062   2.221       .  S
In1054     O1063   2.239       .  S
In1054     O1066   2.271       .  S
C1055      O1061   1.260       .  A
C1055      O1063   1.256       .  A
C1055      C1097   1.437       .  S
O1056      C1064   1.260       .  A
O1057      C1064   1.258       .  A
C1058      O1065   1.259       .  A
C1058      O1059   1.260       .  A
C1058      C1144   1.473       .  S
C1060      O1062   1.255       .  A
C1060      O1066   1.261       .  A
C1060      C1103   1.433       .  S
C1064      C1095   1.429       .  S
In1067     O1069   2.255       .  S
In1067     O1070   2.227       .  S
In1067     O1078   2.237       .  S
In1067     O1072   2.263       .  S
In1067     O1074   2.247       .  S
In1067     O1075   2.219       .  S
In1067     O1076   2.243       .  S
In1067     O1079   2.270       .  S
C1068      O1074   1.259       .  A
C1068      O1076   1.259       .  A
C1068      C1136   1.470       .  S
O1069      C1077   1.260       .  A
O1070      C1077   1.258       .  A
C1071      O1078   1.256       .  A
C1071      O1072   1.260       .  A
C1071      C1093   1.435       .  S
C1073      O1075   1.255       .  A
C1073      O1079   1.261       .  A
C1073      C1102   1.432       .  S
C1077      C1096   1.429       .  S
In1080     O1082   2.260       .  S
In1080     O1083   2.222       .  S
In1080     O1091   2.239       .  S
In1080     O1085   2.262       .  S
In1080     O1087   2.260       .  S
In1080     O1088   2.231       .  S
In1080     O1089   2.242       .  S
In1080     O1092   2.278       .  S
C1081      O1087   1.259       .  A
C1081      O1089   1.257       .  A
C1081      C1118   1.436       .  S
O1082      C1090   1.260       .  A
O1083      C1090   1.257       .  A
C1084      O1091   1.256       .  A
C1084      O1085   1.259       .  A
C1084      C1094   1.435       .  S
C1086      O1088   1.254       .  A
C1086      O1092   1.261       .  A
C1086      C1112   1.437       .  S
C1090      C1099   1.430       .  S
C1093      C1094   1.206       .  T
C1095      C1096   1.202       .  T
C1097      C1098   1.207       .  T
C1099      C1100   1.202       .  T
C1101      C1102   1.204       .  T
C1103      C1104   1.205       .  T
C1105      C1106   1.200       .  T
C1107      C1108   1.208   1_554  T
C1109      C1110   1.208       .  T
C1111      C1112   1.207   1_554  T
C1113      C1114   1.208       .  T
C1115      C1116   1.203       .  T
C1117      C1118   1.206       .  T
C1119      C1120   1.202       .  T
C1121      C1122   1.208       .  T
C1123      C1124   1.207       .  T
C1125      C1126   1.208       .  T
C1127      C1128   1.208       .  T
C1129      C1130   1.202       .  T
C1131      C1132   1.209       .  T
C1133      C1134   1.209       .  T
C1135      C1136   1.343       .  D
C1135      H1137   1.085       .  S
C1136      H1138   1.085       .  S
C1139      C1140   1.205       .  T
C1141      C1142   1.204       .  T
C1143      C1144   1.344       .  D
C1143      H1145   1.085       .  S
C1144      H1146   1.085       .  S
C1147      C1148   1.204       .  T
C1149      C1150   1.208       .  T
C1151      C1152   1.207       .  T
C1153      C1154   1.339       .  D
C1153      H1155   1.086       .  S
C1154      H1156   1.086       .  S
C1157      C1158   1.202   1_556  T
C1159      C1160   1.202   1_556  T
C1161      C1162   1.207       .  T
C1163      C1164   1.204   1_556  T
C1165      C1166   1.339       .  D
C1165      H1167   1.086       .  S
C1166      H1168   1.086       .  S
C1169      C1170   1.201   1_556  T
C1171      C1172   1.207       .  T
C1173      C1174   1.206       .  T
C1175      C1176   1.202   1_556  T
C1177      C1178   1.203       .  T
C1179      C1180   1.202   1_556  T
C1181      C1182   1.204       .  T
C1183      C1184   1.204       .  T
C1185      C1186   1.208       .  T
C1187      C1188   1.207       .  T
C1189      C1190   1.202       .  T
C1191      C1192   1.206       .  T
C1193      C1194   1.205       .  T
C1195      C1196   1.202       .  T
C1197      C1198   1.208       .  T
C1199      C1200   1.207   1_554  T
C1201      C1202   1.203       .  T
C1203      C1204   1.204       .  T
C1205      C1206   1.207       .  T
C1207      C1208   1.200       .  T
C1209      C1210   1.209       .  T
C1211      C1212   1.207   1_556  T
C1213      C1214   1.208       .  T
C1215      C1216   1.203       .  T
C1217      C1218   1.202   1_655  T
C1219      C1220   1.208       .  T
C1221      C1222   1.209       .  T
C1223      C1224   1.202   1_455  T
C1225      C1226   1.210       .  T
C1227      C1228   1.209       .  T
C1229      C1230   1.339       .  D
C1229      H1231   1.086       .  S
C1230      H1232   1.086       .  S
C1233      C1234   1.339       .  D
C1233      H1235   1.086       .  S
C1234      H1236   1.086       .  S
C1237      C1238   1.200       .  T
C1239      C1240   1.210       .  T
C1241      C1242   1.209       .  T
C1243      C1244   1.203       .  T
C1245      C1246   1.208       .  T
C1247      C1248   1.208   1_556  T
C1249      C1250   1.205       .  T
C1251      C1252   1.207       .  T
C1253      C1254   1.344       .  D
C1253      H1255   1.085       .  S
C1254      H1256   1.085       .  S
C1257      C1258   1.205       .  T
C1259      C1260   1.343       .  D
C1259      H1261   1.086       .  S
C1260      H1262   1.086       .  S
C1263      C1264   1.202       .  T
C1265      C1266   1.208       .  T
C1267      C1268   1.208   1_554  T
C1269      C1270   1.207       .  T
C1271      C1272   1.202       .  T
C1273      C1274   1.201       .  T
C1275      C1276   1.209       .  T
C1277      C1278   1.207       .  T
C1279      C1280   1.209       .  T
C1281      C1282   1.208       .  T
C1283      C1284   1.202       .  T
C1285      C1286   1.203       .  T
C1287      C1288   1.206       .  T
C1289      C1290   1.202       .  T
C1291      C1292   1.207       .  T
C1293      C1294   1.207   1_554  T
C1295      C1296   1.205       .  T
C1297      C1298   1.209       .  T
C1299      C1300   1.208   1_554  T
C1301      C1302   1.207       .  T
C1303      C1304   1.202       .  T
C1305      C1306   1.342       .  D
C1305      H1307   1.085       .  S
C1306      H1308   1.086       .  S
C1309      C1310   1.343       .  D
C1309      H1311   1.085       .  S
C1310      H1312   1.085       .  S
C1313      C1314   1.204       .  T
C1315      C1316   1.338       .  D
C1315      H1317   1.086       .  S
C1316      H1318   1.086       .  S
C1319      C1320   1.204       .  T
C1321      C1322   1.203       .  T
C1323      C1324   1.203       .  T
C1325      C1326   1.339       .  D
C1325      H1327   1.086       .  S
C1326      H1328   1.086       .  S
C1329      C1330   1.204       .  T
C1331      C1332   1.204       .  T
C1333      C1334   1.203   1_556  T
C1335      C1336   1.339       .  D
C1335      H1337   1.086       .  S
C1336      H1338   1.086       .  S
C1339      C1340   1.200   1_556  T
C1341      C1342   1.209       .  T
C1343      C1344   1.204   1_556  T
C1345      C1346   1.205       .  T
C1347      C1348   1.342       .  D
C1347      H1349   1.085       .  S
C1348      H1350   1.085       .  S
C1351      C1352   1.200   1_554  T
C1353      C1354   1.202       .  T
C1355      C1356   1.339       .  D
C1355      H1357   1.086       .  S
C1356      H1358   1.086       .  S
C1359      C1360   1.202   1_554  T
C1361      C1362   1.207       .  T
C1363      C1364   1.343       .  D
C1363      H1365   1.085       .  S
C1364      H1366   1.086       .  S
C1367      C1368   1.203   1_554  T
C1369      C1370   1.203       .  T
C1371      C1372   1.205       .  T
C1373      C1374   1.203       .  T
C1375      C1376   1.208       .  T
C1377      C1378   1.208       .  T
C1379      C1380   1.203       .  T
C1381      C1382   1.207       .  T
C1383      C1384   1.207       .  T
C1385      C1386   1.343       .  D
C1385      H1387   1.086       .  S
C1386      H1388   1.086       .  S
C1389      C1390   1.343       .  D
C1389      H1391   1.085       .  S
C1390      H1392   1.085       .  S
C1393      C1394   1.202       .  T
C1395      C1396   1.209       .  T
C1397      C1398   1.207       .  T
C1399      C1400   1.202       .  T
C1401      C1402   1.207       .  T
C1403      C1404   1.208   1_554  T
C1405      C1406   1.206       .  T
C1407      C1408   1.206       .  T
C1409      C1410   1.342       .  D
C1409      H1411   1.085       .  S
C1410      H1412   1.086       .  S
C1413      C1414   1.206       .  T
C1415      C1416   1.341       .  D
C1415      H1417   1.085       .  S
C1416      H1418   1.086       .  S
C1419      C1420   1.201       .  T
C1421      C1422   1.210       .  T
C1423      C1424   1.209   1_556  T
C1425      C1426   1.211       .  T
C1427      C1428   1.203       .  T
C1429      C1430   1.210       .  T
C1431      C1432   1.210       .  T
C1433      C1434   1.340       .  D
C1433      H1435   1.085       .  S
C1434      H1436   1.086       .  S
C1437      C1438   1.343       .  D
C1437      H1439   1.086       .  S
C1438      H1440   1.086       .  S
C1441      C1442   1.201       .  T
C1443      C1444   1.208       .  T
C1445      C1446   1.207       .  T
C1447      C1448   1.203       .  T
C1449      C1450   1.205       .  T
C1451      C1452   1.343       .  D
C1451      H1453   1.086       .  S
C1452      H1454   1.086       .  S
C1455      C1456   1.206       .  T
C1457      C1458   1.344       .  D
C1457      H1459   1.086       .  S
C1458      H1460   1.085       .  S
C1461      C1462   1.202       .  T
C1463      C1464   1.208       .  T
C1465      C1466   1.208   1_556  T
C1467      C1468   1.207       .  T
C1469      C1470   1.208       .  T
C1471      C1472   1.208   1_554  T
C1473      C1474   1.208       .  T
C1475      C1476   1.202       .  T
