geometry optimzed in LAMMPS
_audit_creation_date              2020-11-30 
_audit_creation_method            'lammps2cif' 
_symmetry_space_group_name_H-M    'P1' 
_symmetry_Int_Tables_number       1 
_symmetry_cell_setting            triclinic 
loop_ 
_symmetry_equiv_pos_as_xyz 
  x,y,z 
_cell_length_a                    48.32206307885829 
_cell_length_b                    48.000667575449114 
_cell_length_c                    48.497833894304456 
_cell_angle_alpha                 89.92656723772355 
_cell_angle_beta                  89.51966765750647 
_cell_angle_gamma                 89.91966453112151 
loop_ 
_atom_site_label 
_atom_site_type_symbol 
_atom_site_fract_x 
_atom_site_fract_y 
_atom_site_fract_z 
_atom_site_charge 
C1          C  0.68959518  0.72259077  0.72336172     0.03360
C2          C  0.70015240  0.73222895  0.69789787    -0.12790
C3          C  0.72277788  0.71910333  0.68466625     0.00860
C4          C  0.73365338  0.69486100  0.69680196    -0.11320
C5          C  0.72490316  0.68639948  0.72320641     0.03350
C6          C  0.70384548  0.70116089  0.73682213    -0.10740
H7          H  0.69032051  0.74983510  0.68802598     0.08950
H8          H  0.74832197  0.68208635  0.68568270     0.06470
H9          H  0.69820483  0.69524346  0.75756093     0.06320
C10         C  0.68838465  0.26555959  0.72365452     0.03360
C11         C  0.70040656  0.25388514  0.69988411    -0.12790
C12         C  0.72126173  0.26803159  0.68536417     0.00860
C13         C  0.73138909  0.29322322  0.69582753    -0.11320
C14         C  0.72023630  0.30472715  0.72012245     0.03350
C15         C  0.69862963  0.29081022  0.73384892    -0.10740
H16         H  0.69295187  0.23406309  0.69235778     0.08950
H17         H  0.74775101  0.30409958  0.68483285     0.06470
H18         H  0.68951223  0.29981349  0.75215295     0.06320
C19         C  0.26664747  0.30071723  0.72201666     0.03360
C20         C  0.29329449  0.29387524  0.73122991    -0.12790
C21         C  0.30747874  0.27111720  0.72031553     0.00860
C22         C  0.29753329  0.25824342  0.69650780    -0.11320
C23         C  0.27085806  0.26406657  0.68615099     0.03350
C24         C  0.25464277  0.28308751  0.70216864    -0.10740
H25         H  0.30322454  0.30593353  0.74718089     0.08950
H26         H  0.31158299  0.24416450  0.68700216     0.06470
H27         H  0.23273504  0.28472196  0.69904607     0.06320
C28         C  0.27044374  0.72042895  0.68660084     0.03360
C29         C  0.25699940  0.69884210  0.70096803    -0.12790
C30         C  0.26781181  0.68838180  0.72573539     0.00860
C31         C  0.29171893  0.70059296  0.73669445    -0.11320
C32         C  0.30504457  0.72245341  0.72288848     0.03350
C33         C  0.29456778  0.73209517  0.69778227    -0.10740
H34         H  0.23828456  0.68993080  0.69281608     0.08950
H35         H  0.30048572  0.69253400  0.75560384     0.06470
H36         H  0.30550404  0.74840331  0.68672388     0.06320
C37         C  0.30536142  0.72049766  0.27232512     0.03360
C38         C  0.29395317  0.73037904  0.29703231    -0.12790
C39         C  0.27025476  0.71799052  0.30870699     0.00860
C40         C  0.25784197  0.69552990  0.29487711    -0.11320
C41         C  0.26843596  0.68588550  0.26943766     0.03350
C42         C  0.29201726  0.69902163  0.25819986    -0.10740
H43         H  0.30363317  0.74784288  0.30724621     0.08950
H44         H  0.23982014  0.68576115  0.30372749     0.06470
H45         H  0.30056167  0.69210008  0.23864511     0.06320
C46         C  0.72269451  0.68784745  0.26652069     0.03360
C47         C  0.73376394  0.69894960  0.29073875    -0.12790
C48         C  0.71980403  0.72012678  0.30517869     0.00860
C49         C  0.69508321  0.73093885  0.29433940    -0.11320
C50         C  0.68421583  0.72032813  0.26980919     0.03350
C51         C  0.69816792  0.69894347  0.25589571    -0.10740
H52         H  0.75273228  0.69042076  0.29877572     0.08950
H53         H  0.68396196  0.74722326  0.30524787     0.06470
H54         H  0.68946229  0.69028360  0.23724724     0.06320
C55         C  0.72251073  0.26983757  0.30618204     0.03360
C56         C  0.72911972  0.29691590  0.29741154    -0.12790
C57         C  0.71694689  0.30828435  0.27379358     0.00860
C58         C  0.69580755  0.29367189  0.26057913    -0.11320
C59         C  0.68696681  0.26769577  0.27063741     0.03350
C60         C  0.70189435  0.25506112  0.29199988    -0.10740
H61         H  0.74418708  0.30907061  0.30851377     0.08950
H62         H  0.68624964  0.30247472  0.24244563     0.06470
H63         H  0.69706851  0.23392376  0.29802234     0.06320
N64         N  0.79142191  0.43691438  0.78793175    -0.27060
N65         N  0.77825709  0.45047856  0.76826773    -0.34920
C66         C  0.76471796  0.43205839  0.75251988     0.01280
C67         C  0.76976980  0.40555497  0.76257287     0.07310
C68         C  0.78644651  0.40949802  0.78533071    -0.05790
H69         H  0.75185180  0.43757671  0.73519100     0.07970
H70         H  0.79361102  0.39391985  0.79967510     0.09170
Cu71       Cu  0.77761300  0.49342730  0.76487049     0.44170
Cu72       Cu  0.81558792  0.45626797  0.81734698     0.41990
Cu73       Cu  0.81464532  0.53162553  0.81717960     0.43880
N74         N  0.77601874  0.53628107  0.76896427    -0.34450
N75         N  0.78889047  0.55017077  0.78853921    -0.28700
C76         C  0.78275755  0.57737347  0.78614173    -0.04800
C77         C  0.76497307  0.58076957  0.76413989     0.07410
C78         C  0.76152879  0.55427211  0.75347059     0.01210
H79         H  0.79065878  0.59353257  0.79945779     0.08860
H80         H  0.75008838  0.54836449  0.73538999     0.07940
N81         N  0.83983816  0.50804601  0.84254222    -0.35900
N82         N  0.84013007  0.48048958  0.84265430    -0.28080
C83         C  0.85878982  0.47157823  0.86111535    -0.03310
C84         C  0.87064031  0.49464993  0.87318403     0.05300
C85         C  0.85829819  0.51742028  0.86093249     0.03390
H86         H  0.86333393  0.44994590  0.86545909     0.08490
H87         H  0.86235249  0.53915944  0.86512508     0.07330
N88         N  0.20279123  0.43762609  0.79003190    -0.27060
N89         N  0.21790420  0.45066695  0.77118868    -0.34920
C90         C  0.23228000  0.43160906  0.75658082     0.01280
C91         C  0.22617372  0.40547800  0.76709312     0.07310
C92         C  0.20715703  0.41006179  0.78799495    -0.05790
H93         H  0.24609385  0.43638524  0.73955713     0.07970
H94         H  0.19664104  0.39450153  0.80034772     0.09170
Cu95       Cu  0.21838099  0.49378061  0.76665365     0.44170
Cu96       Cu  0.17626762  0.45731596  0.81738116     0.41990
Cu97       Cu  0.17648850  0.53203542  0.81655140     0.43880
N98         N  0.21749015  0.53701340  0.76962461    -0.34450
N99         N  0.20272711  0.55072367  0.78825097    -0.28700
C100        C  0.20763790  0.57813371  0.78559054    -0.04800
C101        C  0.22660648  0.58197329  0.76443752     0.07410
C102        C  0.23206053  0.55544790  0.75447199     0.01210
H103        H  0.19832778  0.59410979  0.79837965     0.08860
H104        H  0.24517623  0.54979933  0.73723941     0.07940
N105        N  0.15087260  0.50880047  0.84192841    -0.35900
N106        N  0.15075464  0.48126665  0.84220486    -0.28080
C107        C  0.13154451  0.47237023  0.86036861    -0.03310
C108        C  0.11898105  0.49548095  0.87185415     0.05300
C109        C  0.13174725  0.51823466  0.85990953     0.03390
H110        H  0.12693411  0.45074643  0.86469961     0.08490
H111        H  0.12731185  0.53998306  0.86379191     0.07330
N112        N  0.78710664  0.55163872  0.20070127    -0.27060
N113        N  0.77619769  0.53809550  0.22185967    -0.34920
C114        C  0.76249869  0.55623696  0.23802502     0.01280
C115        C  0.76419249  0.58244365  0.22610144     0.07310
C116        C  0.78031465  0.57870539  0.20263768    -0.05790
H117        H  0.75254172  0.55052924  0.25716915     0.07970
H118        H  0.78657924  0.59450378  0.18793777     0.09170
Cu119      Cu  0.77811852  0.49531644  0.22669755     0.44170
Cu120      Cu  0.81152313  0.53300766  0.17081668     0.41990
Cu121      Cu  0.81223447  0.45787507  0.17170358     0.43880
N122        N  0.77660002  0.45246631  0.22251072    -0.34450
N123        N  0.78808526  0.43892061  0.20166915    -0.28700
C124        C  0.78190454  0.41172554  0.20382740    -0.04800
C125        C  0.76624497  0.40780772  0.22757028     0.07410
C126        C  0.76300136  0.43420092  0.23865476     0.01210
H127        H  0.78774390  0.39635473  0.18865417     0.08860
H128        H  0.75142107  0.43975072  0.25703672     0.07940
N129        N  0.83802972  0.48167212  0.14696720    -0.35900
N130        N  0.83765397  0.50921145  0.14650087    -0.28080
C131        C  0.85734763  0.51834785  0.12898163    -0.03310
C132        C  0.87086482  0.49541676  0.11825702     0.05300
C133        C  0.85803199  0.47250398  0.12982532     0.03390
H134        H  0.86165205  0.54002470  0.12459773     0.08490
H135        H  0.86289090  0.45081344  0.12612399     0.07330
N136        N  0.20372084  0.55214175  0.19817481    -0.27060
N137        N  0.22099732  0.53782022  0.21373936    -0.34920
C138        C  0.23630125  0.55571738  0.22849230     0.01280
C139        C  0.22862738  0.58261867  0.22151455     0.07310
C140        C  0.20766429  0.57951798  0.20250649    -0.05790
H141        H  0.25118937  0.54946598  0.24381028     0.07970
H142        H  0.19610084  0.59597347  0.19257181     0.09170
Cu143      Cu  0.22247711  0.49456228  0.21469200     0.44170
Cu144      Cu  0.17509570  0.53373916  0.17239077     0.41990
Cu145      Cu  0.16773479  0.45881254  0.17857224     0.43880
N146        N  0.21799697  0.45152175  0.21405886    -0.34450
N147        N  0.19717085  0.43861769  0.20214888    -0.28700
C148        C  0.19938090  0.41107570  0.20676259    -0.04800
C149        C  0.22323970  0.40610456  0.22176673     0.07410
C150        C  0.23428505  0.43245006  0.22612771     0.01210
H151        H  0.18419972  0.39620491  0.20008819     0.08860
H152        H  0.25282894  0.43746870  0.23742474     0.07940
N153        N  0.14517090  0.48302598  0.15139536    -0.35900
N154        N  0.14820457  0.51028887  0.14882833    -0.28080
C155        C  0.13161156  0.51950773  0.12864622    -0.03310
C156        C  0.11773707  0.49691344  0.11786564     0.05300
C157        C  0.12653460  0.47417548  0.13292978     0.03390
H158        H  0.12972586  0.54106467  0.12240091     0.08490
H159        H  0.12018136  0.45273618  0.13038033     0.07330
O160        O  0.96459487  0.51872107  0.96581392    -0.72710
O161        O  0.02441690  0.51948351  0.02398433    -0.73700
O162        O  0.02391372  0.51958235  0.96495021    -0.62310
O163        O  0.96506694  0.51826766  0.02494291    -0.70720
O164        O  0.96582606  0.47203006  0.02491662    -0.70280
O165        O  0.02455805  0.47333808  0.96499952    -0.61530
O166        O  0.02497268  0.47325530  0.02410864    -0.74040
O167        O  0.96522117  0.47249594  0.96571806    -0.72820
Cu168      Cu  0.99446065  0.52061284  0.99492896     1.04560
Cu169      Cu  0.99517738  0.47118228  0.99491299     1.04330
C170        C  0.95560721  0.49553728  0.95652271     0.93480
C171        C  0.03394667  0.49649673  0.03332226     0.92620
C172        C  0.03358433  0.49657527  0.95569662     0.84770
C173        C  0.95615829  0.49496873  0.03428173     0.91040
N174        N  0.55318864  0.79742842  0.77940126    -0.27060
N175        N  0.54059964  0.77977258  0.76288271    -0.34920
C176        C  0.55985211  0.76460311  0.74941372     0.01280
C177        C  0.58578150  0.77347015  0.75769630     0.07310
C178        C  0.58069736  0.79400855  0.77704709    -0.05790
H179        H  0.55534879  0.74794030  0.73514194     0.07970
H180        H  0.59569363  0.80466426  0.78962450     0.09170
Cu181      Cu  0.49779544  0.77631535  0.76203044     0.44170
Cu182      Cu  0.53209902  0.82328563  0.80615726     0.41990
Cu183      Cu  0.45983143  0.80774147  0.82018661     0.43880
N184        N  0.45526957  0.77361800  0.76795596    -0.34450
N185        N  0.44164516  0.78332767  0.78964511    -0.28700
C186        C  0.41475766  0.77646610  0.78722199    -0.04800
C187        C  0.41111039  0.76173521  0.76279065     0.07410
C188        C  0.43739803  0.76097539  0.75101879     0.01210
H189        H  0.39893201  0.78200600  0.80214670     0.08860
H190        H  0.44349275  0.75257012  0.73134956     0.07940
N191        N  0.48302399  0.83648860  0.84256917    -0.35900
N192        N  0.50874245  0.84311648  0.83595138    -0.28080
C193        C  0.51752260  0.86358095  0.85251010    -0.03310
C194        C  0.49673634  0.86983801  0.87134889     0.05300
C195        C  0.47498802  0.85237602  0.86406318     0.03390
H196        H  0.53744123  0.87333337  0.85021386     0.08490
H197        H  0.45467981  0.85144648  0.87357538     0.07330
N198        N  0.55261624  0.19760282  0.78742862    -0.27060
N199        N  0.53924043  0.21661586  0.77304381    -0.34920
C200        C  0.55755599  0.23200169  0.75875298     0.01280
C201        C  0.58386246  0.22169028  0.76358299     0.07310
C202        C  0.57990007  0.20008673  0.78224950    -0.05790
H203        H  0.55188709  0.24973141  0.74636343     0.07970
H204        H  0.59569215  0.18711863  0.79140173     0.09170
Cu205      Cu  0.49670919  0.22054811  0.77269163     0.44170
Cu206      Cu  0.53265730  0.17042587  0.81419274     0.41990
Cu207      Cu  0.45741321  0.18011278  0.82125499     0.43880
N208        N  0.45411497  0.22223837  0.77562522    -0.34450
N209        N  0.43957605  0.20851447  0.79433643    -0.28700
C210        C  0.41266474  0.21492982  0.79130570    -0.04800
C211        C  0.41007661  0.23362762  0.76952507     0.07410
C212        C  0.43691703  0.23722737  0.75984193     0.01210
H213        H  0.39616009  0.20629791  0.80385133     0.08860
H214        H  0.44369907  0.24913331  0.74220244     0.07940
N215        N  0.48034900  0.15091613  0.84303623    -0.35900
N216        N  0.50743509  0.14746118  0.84047199    -0.28080
C217        C  0.51556702  0.12703931  0.85760363    -0.03310
C218        C  0.49248632  0.11689923  0.87122940     0.05300
C219        C  0.47056598  0.13264627  0.86176092     0.03390
H220        H  0.53672603  0.12009971  0.85997547     0.08490
H221        H  0.44916024  0.13130173  0.86832163     0.07330
N222        N  0.55077567  0.78266128  0.19609207    -0.27060
N223        N  0.53767827  0.77000256  0.21652925    -0.34920
C224        C  0.55649297  0.75821814  0.23316685     0.01280
C225        C  0.58286987  0.76360891  0.22275164     0.07310
C226        C  0.57815382  0.77877547  0.19883724    -0.05790
H227        H  0.55129927  0.74673447  0.25170145     0.07970
H228        H  0.59311852  0.78642348  0.18414562     0.09170
Cu229      Cu  0.49480635  0.76925284  0.22041046     0.44170
Cu230      Cu  0.53127112  0.80753993  0.16726912     0.41990
Cu231      Cu  0.45885851  0.82179669  0.18092313     0.43880
N232        N  0.45196252  0.77309475  0.21944911    -0.34450
N233        N  0.43900957  0.79324304  0.20622816    -0.28700
C234        C  0.41160062  0.79061638  0.21037171    -0.04800
C235        C  0.40673419  0.76707887  0.22636500     0.07410
C236        C  0.43303741  0.75675196  0.23186861     0.01210
H237        H  0.39670941  0.80520495  0.20246656     0.08860
H238        H  0.43812250  0.73853788  0.24397709     0.07940
N239        N  0.48240490  0.84322261  0.15204801    -0.35900
N240        N  0.50863202  0.83748664  0.14652024    -0.28080
C241        C  0.51767282  0.85452575  0.12636390    -0.03310
C242        C  0.49617195  0.87204083  0.11911263     0.05300
C243        C  0.47403469  0.86402759  0.13551411     0.03390
H244        H  0.53816321  0.85365514  0.11730209     0.08490
H245        H  0.45332941  0.87263027  0.13536188     0.07330
N246        N  0.44067080  0.20730238  0.20082215    -0.27060
N247        N  0.45500941  0.21890403  0.22082579    -0.34920
C248        C  0.43759946  0.23186622  0.23831503     0.01280
C249        C  0.41077178  0.22940629  0.22860377     0.07310
C250        C  0.41368505  0.21326241  0.20487335    -0.05790
H251        H  0.44446070  0.24186852  0.25685071     0.07970
H252        H  0.39732618  0.20634792  0.19143005     0.09170
Cu253      Cu  0.49780991  0.21888947  0.22330597     0.44170
Cu254      Cu  0.45853950  0.18219055  0.17020092     0.41990
Cu255      Cu  0.53247587  0.17089090  0.18038956     0.43880
N256        N  0.54055654  0.21775590  0.21972294    -0.34450
N257        N  0.55347091  0.19948243  0.20390631    -0.28700
C258        C  0.58094562  0.20317120  0.20594924    -0.04800
C259        C  0.58559001  0.22523958  0.22364106     0.07410
C260        C  0.55947647  0.23374019  0.23224970     0.01210
H261        H  0.59621518  0.18987896  0.19624722     0.08860
H262        H  0.55464416  0.25002628  0.24693116     0.07940
N263        N  0.50866543  0.14853347  0.15323192    -0.35900
N264        N  0.48248204  0.15366401  0.14769670    -0.28080
C265        C  0.47466691  0.13658672  0.12718917    -0.03310
C266        C  0.49696093  0.11956297  0.11946331     0.05300
C267        C  0.51791984  0.12782700  0.13710527     0.03390
H268        H  0.45411551  0.13669053  0.11855418     0.08490
H269        H  0.53850632  0.11975621  0.13896743     0.07330
O270        O  0.51436872  0.96480577  0.02404374    -0.72710
O271        O  0.51507596  0.02424361  0.96622623    -0.73700
O272        O  0.51433475  0.02380001  0.02455199    -0.62310
O273        O  0.51443357  0.96511246  0.96549835    -0.70720
O274        O  0.46877178  0.96511334  0.96612172    -0.70280
O275        O  0.46871982  0.02436916  0.02421416    -0.61530
O276        O  0.46916555  0.02416945  0.96566746    -0.74040
O277        O  0.46852116  0.96521583  0.02447887    -0.72820
Cu278      Cu  0.51614465  0.99446641  0.99506758     1.04560
Cu279      Cu  0.46721239  0.99473180  0.99512483     1.04330
C280        C  0.49138401  0.95553981  0.03340851     0.93480
C281        C  0.49230732  0.03368306  0.95691704     0.92620
C282        C  0.49142184  0.03357258  0.03381190     0.84770
C283        C  0.49149701  0.95569226  0.95636674     0.91040
C284        C  0.26859627  0.27070447  0.30617484     0.03360
C285        C  0.29319849  0.25918298  0.29538190    -0.12790
C286        C  0.30535705  0.27000272  0.27127322     0.00860
C287        C  0.29350698  0.29329067  0.25849695    -0.11320
C288        C  0.26920917  0.30519991  0.26915619     0.03350
C289        C  0.25618647  0.29313999  0.29225798    -0.10740
H290        H  0.30311813  0.24200917  0.30596704     0.08950
H291        H  0.30355622  0.30254070  0.24064180     0.06470
H292        H  0.23659085  0.30145151  0.29938700     0.06320
N293        N  0.78599984  0.79038612  0.43754323    -0.27060
N294        N  0.76858727  0.77402684  0.45101290    -0.34920
C295        C  0.75390844  0.75932205  0.43265849     0.01280
C296        C  0.76233684  0.76705061  0.40636677     0.07310
C297        C  0.78308628  0.78643407  0.41031171    -0.05790
H298        H  0.73806498  0.74431268  0.43802503     0.07970
H299        H  0.79562662  0.79658984  0.39477452     0.09170
Cu300      Cu  0.76589602  0.77298776  0.49366219     0.44170
Cu301      Cu  0.81151482  0.81859483  0.45677498     0.41990
Cu302      Cu  0.80663091  0.82426372  0.53127932     0.43880
N303        N  0.76683526  0.77586650  0.53627912    -0.34450
N304        N  0.78150928  0.79434193  0.55011344    -0.28700
C305        C  0.77738936  0.79012949  0.57731104    -0.04800
C306        C  0.75895362  0.76827374  0.58065369     0.07410
C307        C  0.75307233  0.75950339  0.55421793     0.01210
H308        H  0.78705757  0.80209351  0.59347303     0.08860
H309        H  0.74034133  0.74202007  0.54834905     0.07940
N310        N  0.83003614  0.85102256  0.50647502    -0.35900
N311        N  0.83192264  0.84844301  0.47937836    -0.28080
C312        C  0.84955502  0.86764017  0.46940330    -0.03310
C313        C  0.85896239  0.88342042  0.49113611     0.05300
C314        C  0.84647928  0.87213208  0.51441442     0.03390
H315        H  0.85581476  0.86935196  0.44799739     0.08490
H316        H  0.85015576  0.87789915  0.53562518     0.07330
N317        N  0.20478567  0.79108036  0.55366125    -0.27060
N318        N  0.22245335  0.77496776  0.54015797    -0.34920
C319        C  0.23699320  0.76000659  0.55852819     0.01280
C320        C  0.22822445  0.76726784  0.58485042     0.07310
C321        C  0.20739041  0.78663305  0.58086510    -0.05790
H322        H  0.25300413  0.74515124  0.55315121     0.07970
H323        H  0.19458928  0.79649973  0.59635850     0.09170
Cu324      Cu  0.22561288  0.77406082  0.49739984     0.44170
Cu325      Cu  0.17910650  0.81982833  0.53499783     0.41990
Cu326      Cu  0.17991126  0.82140963  0.46082003     0.43880
N327        N  0.22285955  0.77603101  0.45469379    -0.34450
N328        N  0.20574148  0.79277150  0.44146220    -0.28700
C329        C  0.20838917  0.78836042  0.41418679    -0.04800
C330        C  0.22858104  0.76825885  0.40991523     0.07410
C331        C  0.23699665  0.76069301  0.43613106     0.01210
H332        H  0.19582831  0.79851136  0.39885929     0.08860
H333        H  0.25231987  0.74513468  0.44132811     0.07940
N334        N  0.15799578  0.84966900  0.48491680    -0.35900
N335        N  0.15786379  0.84915760  0.51215093    -0.28080
C336        C  0.14107858  0.86941575  0.52162421    -0.03310
C337        C  0.13041374  0.88368033  0.49928859     0.05300
C338        C  0.14117760  0.87020519  0.47634278     0.03390
H339        H  0.13603008  0.87273980  0.54314791     0.08490
H340        H  0.13588189  0.87387012  0.45502118     0.07330
N341        N  0.78784144  0.20117765  0.43918653    -0.27060
N342        N  0.77417422  0.22051370  0.45317091    -0.34920
C343        C  0.76063266  0.23695624  0.43527119     0.01280
C344        C  0.76603320  0.22736983  0.40888314     0.07310
C345        C  0.78351750  0.20487457  0.41208665    -0.05790
H346        H  0.74757979  0.25434916  0.44107268     0.07970
H347        H  0.79177347  0.19161456  0.39597135     0.09170
Cu348      Cu  0.77355499  0.22285970  0.49597615     0.44170
Cu349      Cu  0.81023446  0.16938061  0.45724729     0.41990
Cu350      Cu  0.80898053  0.16690013  0.53149390     0.43880
N351        N  0.77500255  0.21917424  0.53865555    -0.34450
N352        N  0.78750781  0.19846205  0.55153231    -0.28700
C353        C  0.78357453  0.20130263  0.57886948    -0.04800
C354        C  0.76829243  0.22529262  0.58356321     0.07410
C355        C  0.76294567  0.23585085  0.55752257     0.01210
H356        H  0.79028471  0.18620450  0.59391830     0.08860
H357        H  0.75076601  0.25410712  0.55264267     0.07940
N358        N  0.83014740  0.13836641  0.50712153    -0.35900
N359        N  0.83041495  0.13912238  0.47989333    -0.28080
C360        C  0.84728809  0.11896790  0.47034697    -0.03310
C361        C  0.85790221  0.10455151  0.49262641     0.05300
C362        C  0.84700951  0.11784624  0.51561037     0.03390
H363        H  0.85263574  0.11598822  0.44884252     0.08490
H364        H  0.85245485  0.11427986  0.53690674     0.07330
N365        N  0.20264354  0.19637076  0.43907593    -0.27060
N366        N  0.21948747  0.21363077  0.45187014    -0.34920
C367        C  0.23372604  0.22830544  0.43287504     0.01280
C368        C  0.22553663  0.21997999  0.40675756     0.07310
C369        C  0.20542020  0.19993658  0.41167419    -0.05790
H370        H  0.24881931  0.24414447  0.43774227     0.07970
H371        H  0.19290175  0.18925317  0.39677189     0.09170
Cu372      Cu  0.22121567  0.21776358  0.49456624     0.44170
Cu373      Cu  0.17708591  0.16809569  0.45921674     0.41990
Cu374      Cu  0.17708113  0.17096392  0.53335746     0.43880
N375        N  0.21713168  0.21865567  0.53733774    -0.34450
N376        N  0.20072834  0.20157516  0.55127573    -0.28700
C377        C  0.20335070  0.20641489  0.57839733    -0.04800
C378        C  0.22206706  0.22775752  0.58170993     0.07410
C379        C  0.23067126  0.23489957  0.55535829     0.01210
H380        H  0.19318536  0.19455086  0.59452395     0.08860
H381        H  0.24630747  0.25004549  0.54977618     0.07940
N382        N  0.15585133  0.14128341  0.51137743    -0.35900
N383        N  0.15575214  0.14016198  0.48416080    -0.28080
C384        C  0.13906415  0.11931243  0.47626721    -0.03310
C385        C  0.12852564  0.10651106  0.49967686     0.05300
C386        C  0.13923687  0.12126956  0.52154189     0.03390
H387        H  0.13385417  0.11479864  0.45509117     0.08490
H388        H  0.13446528  0.11837023  0.54319097     0.07330
O389        O  0.96546109  0.96574533  0.47065690    -0.72710
O390        O  0.02611398  0.02385485  0.47463780    -0.73700
O391        O  0.02565697  0.96498124  0.47381072    -0.62310
O392        O  0.96611926  0.02478128  0.47169181    -0.70720
O393        O  0.96304828  0.02383750  0.51732299    -0.70280
O394        O  0.02247912  0.96417963  0.51941934    -0.61530
O395        O  0.02296987  0.02325559  0.52028986    -0.74040
O396        O  0.96230584  0.96506944  0.51631117    -0.72820
Cu397      Cu  0.99592106  0.99485290  0.47112616     1.04560
Cu398      Cu  0.99263577  0.99404258  0.51989776     1.04330
C399        C  0.95376004  0.95692453  0.49276732     0.93480
C400        C  0.03449347  0.03223340  0.49814784     0.92620
C401        C  0.03399178  0.95572808  0.49707837     0.84770
C402        C  0.95471230  0.03317518  0.49411675     0.91040
C403        C  0.08017643  0.09569333  0.51098213    -0.05550
C404        C  0.10563905  0.08627406  0.50092374     0.00380
C405        C  0.10826874  0.05874233  0.49104980    -0.08200
C406        C  0.08461043  0.04150579  0.49079567    -0.05570
C407        C  0.05863602  0.05135990  0.49976295     0.00360
C408        C  0.05643430  0.07895792  0.50992126    -0.08100
C409        C  0.02875199  0.09275506  0.51386033     0.62270
H410        H  0.07864099  0.11715263  0.51774633     0.12970
H411        H  0.08614423  0.02031579  0.48329431     0.12980
C412        C  0.13614882  0.04772648  0.48155197     0.62510
F413        F  0.03085703  0.11855592  0.52642309    -0.22660
F414        F  0.01122280  0.07652546  0.52977569    -0.19990
F415        F  0.01807234  0.09655820  0.48786861    -0.19660
F416        F  0.15527795  0.05090117  0.50237781    -0.19720
F417        F  0.14509100  0.06206844  0.45843472    -0.20040
F418        F  0.13489241  0.01988234  0.47489568    -0.22710
C419        C  0.90522631  0.04218894  0.50471711    -0.05550
C420        C  0.93017926  0.05200500  0.49320410     0.00380
C421        C  0.93067897  0.07882500  0.48088304    -0.08200
C422        C  0.90616288  0.09451305  0.47988056    -0.05570
C423        C  0.88161399  0.08505310  0.49205137     0.00360
C424        C  0.88084872  0.05842950  0.50455720    -0.08100
C425        C  0.85417669  0.04690454  0.51667105     0.62270
H426        H  0.90501629  0.02162215  0.51390949     0.12970
H427        H  0.90643697  0.11538466  0.47134387     0.12980
C428        C  0.95747314  0.09350556  0.47449090     0.62510
F429        F  0.85768092  0.02027396  0.52684972    -0.22660
F430        F  0.83411359  0.04620218  0.49649312    -0.19990
F431        F  0.84505525  0.06332456  0.53824563    -0.19660
F432        F  0.97508855  0.07687744  0.45910695    -0.19720
F433        F  0.96913950  0.10010582  0.49948432    -0.20040
F434        F  0.95349494  0.11802168  0.45995653    -0.22710
C435        C  0.08369120  0.94648018  0.48695575    -0.05550
C436        C  0.05854446  0.93682144  0.49823939     0.00380
C437        C  0.05794186  0.91013209  0.51090009    -0.08200
C438        C  0.08230892  0.89424384  0.51198990    -0.05570
C439        C  0.10692117  0.90343644  0.49984664     0.00360
C440        C  0.10801041  0.93009530  0.48749529    -0.08100
C441        C  0.13503482  0.94146528  0.47610217     0.62270
H442        H  0.08413845  0.96704382  0.47775488     0.12970
H443        H  0.08189886  0.87343723  0.52067356     0.12980
C444        C  0.03115550  0.89588571  0.51810829     0.62510
F445        F  0.13201293  0.96824758  0.46630707    -0.22660
F446        F  0.14442600  0.92524765  0.45448369    -0.19990
F447        F  0.15468310  0.94166950  0.49669895    -0.19660
F448        F  0.01863678  0.88946497  0.49350806    -0.19720
F449        F  0.01439515  0.91283520  0.53407135    -0.20040
F450        F  0.03513477  0.87129508  0.53251680    -0.22710
C451        C  0.90828379  0.89272140  0.48317786    -0.05550
C452        C  0.88225071  0.90324785  0.49017804     0.00380
C453        C  0.87914457  0.93182920  0.49632097    -0.08200
C454        C  0.90293437  0.94892564  0.49671660    -0.05570
C455        C  0.92940733  0.93802574  0.49104279     0.00360
C456        C  0.93197026  0.90954403  0.48388173    -0.08100
C457        C  0.95981596  0.89587415  0.48165992     0.62270
H458        H  0.91010212  0.87067352  0.47872760     0.12970
H459        H  0.90106748  0.97082566  0.50171836     0.12980
C460        C  0.85068454  0.94397524  0.50173407     0.62510
F461        F  0.95824440  0.86874684  0.47210557    -0.22660
F462        F  0.97045307  0.89537841  0.50792169    -0.19990
F463        F  0.97698078  0.91061766  0.46397763    -0.19660
F464        F  0.83987899  0.93315102  0.52595009    -0.19720
F465        F  0.83329732  0.93746780  0.48016343    -0.20040
F466        F  0.85153617  0.97259048  0.50403954    -0.22710
C467        C  0.24070237  0.26086330  0.37959142    -0.05550
C468        C  0.23514949  0.23214846  0.38001067     0.00380
C469        C  0.24075845  0.21618205  0.35589953    -0.08200
C470        C  0.25043632  0.22998892  0.33203866    -0.05570
C471        C  0.25603880  0.25867996  0.33174007     0.00360
C472        C  0.25178972  0.27433989  0.35623623    -0.08100
C473        C  0.26027378  0.30470222  0.35858634     0.62270
H474        H  0.23653101  0.27283306  0.39806789     0.12970
H475        H  0.25417971  0.21827421  0.31329125     0.12980
C476        C  0.23794021  0.18467090  0.35515544     0.62510
F477        F  0.25936458  0.31394393  0.38561563    -0.22660
F478        F  0.24261609  0.32129442  0.34352387    -0.19990
F479        F  0.28711295  0.30799453  0.34907932    -0.19660
F480        F  0.21037259  0.17747754  0.35320993    -0.19720
F481        F  0.24920770  0.17291378  0.37858225    -0.20040
F482        F  0.25167977  0.17332517  0.33263899    -0.22710
C483        C  0.36004888  0.22471704  0.23636189    -0.05550
C484        C  0.38427365  0.24042215  0.24073719     0.00380
C485        C  0.38193137  0.26631129  0.25511325    -0.08200
C486        C  0.35578797  0.27462412  0.26517730    -0.05570
C487        C  0.33199081  0.25880264  0.26077655     0.00360
C488        C  0.33385459  0.23369289  0.24575613    -0.08100
C489        C  0.30812402  0.21700470  0.23899010     0.62270
H490        H  0.36169561  0.20516050  0.22540788     0.12970
H491        H  0.35359506  0.29384891  0.27668571     0.12980
C492        C  0.40614392  0.28586134  0.25985740     0.62510
F493        F  0.31418977  0.19412927  0.22265417    -0.22660
F494        F  0.28962113  0.23367321  0.22488727    -0.19990
F495        F  0.29571886  0.20754841  0.26300871    -0.19660
F496        F  0.42215149  0.28835912  0.23622230    -0.19720
F497        F  0.42192534  0.27605002  0.28142753    -0.20040
F498        F  0.39727063  0.31240378  0.26683405    -0.22710
C499        C  0.51768893  0.06624815  0.06325314    -0.05550
C500        C  0.49175472  0.05566442  0.05567425     0.00380
C501        C  0.46772423  0.06628851  0.06922207    -0.08200
C502        C  0.47097910  0.08630437  0.09017691    -0.05570
C503        C  0.49692859  0.09712188  0.09771093     0.00360
C504        C  0.52095284  0.08684914  0.08360957    -0.08100
C505        C  0.55027400  0.09662749  0.08939278     0.62270
H506        H  0.53590432  0.05803014  0.05301293     0.12970
H507        H  0.45280106  0.09354272  0.10109641     0.12980
C508        C  0.43856821  0.05700411  0.06195536     0.62510
F509        F  0.56892274  0.08780618  0.06937593    -0.22660
F510        F  0.55899777  0.08557292  0.11418133    -0.19990
F511        F  0.55144092  0.12540063  0.08980728    -0.19660
F512        F  0.43580398  0.02868011  0.06646709    -0.19720
F513        F  0.43327676  0.06318012  0.03462490    -0.20040
F514        F  0.41854699  0.07033472  0.07772703    -0.22710
C515        C  0.47603405  0.89079316  0.07641931    -0.05550
C516        C  0.49584201  0.89344574  0.09721830     0.00380
C517        C  0.51369535  0.91681314  0.09737114    -0.08200
C518        C  0.51140035  0.93655273  0.07608526    -0.05570
C519        C  0.49166184  0.93390459  0.05516681     0.00360
C520        C  0.47364085  0.91059799  0.05516573    -0.08100
C521        C  0.45253203  0.90611235  0.03255477     0.62270
H522        H  0.46243304  0.87287678  0.07695699     0.12970
H523        H  0.52495279  0.95450888  0.07574465     0.12980
C524        C  0.53439960  0.92150042  0.12031149     0.62510
F525        F  0.43987231  0.88033279  0.03470484    -0.22660
F526        F  0.46538425  0.90754209  0.00698742    -0.19990
F527        F  0.43212199  0.92626053  0.03426846    -0.19660
F528        F  0.55513450  0.90172151  0.11883387    -0.19720
F529        F  0.52121983  0.91971330  0.14568282    -0.20040
F530        F  0.54667525  0.94749320  0.11848297    -0.22710
C531        C  0.50538508  0.10097815  0.91771358    -0.05550
C532        C  0.49192012  0.09530159  0.89286029     0.00380
C533        C  0.47896825  0.06920465  0.88890083    -0.08200
C534        C  0.47926593  0.04973088  0.91057029    -0.05570
C535        C  0.49269397  0.05540463  0.93544501     0.00360
C536        C  0.50599312  0.08138129  0.93927877    -0.08100
C537        C  0.52002066  0.08866370  0.96624656     0.62270
H538        H  0.51534971  0.12102438  0.92009351     0.12970
H539        H  0.46938637  0.02964707  0.90811452     0.12980
C540        C  0.46584363  0.06162149  0.86159736     0.62510
F541        F  0.52901632  0.11603272  0.96658421    -0.22660
F542        F  0.54277929  0.07166359  0.97008961    -0.19990
F543        F  0.50163206  0.08508836  0.98797866    -0.19660
F544        F  0.48498196  0.06491667  0.84047128    -0.19720
F545        F  0.44331298  0.07863690  0.85678264    -0.20040
F546        F  0.45682292  0.03425843  0.86127966    -0.22710
C547        C  0.47125681  0.90553366  0.89820641    -0.05550
C548        C  0.49642905  0.89166941  0.89328011     0.00380
C549        C  0.51967610  0.89847096  0.90978669    -0.08200
C550        C  0.51684120  0.91953845  0.92975620    -0.05570
C551        C  0.49170758  0.93356131  0.93463642     0.00360
C552        C  0.46822092  0.92614168  0.91866553    -0.08100
C553        C  0.43998203  0.93970302  0.92263566     0.62270
H554        H  0.45372745  0.90015822  0.88555671     0.12970
H555        H  0.53465679  0.92516515  0.94191546     0.12980
C556        C  0.54755143  0.88389728  0.90716975     0.62510
F557        F  0.42082293  0.93014950  0.90380793    -0.22660
F558        F  0.44212920  0.96824213  0.91923435    -0.19990
F559        F  0.42979959  0.93365782  0.94870728    -0.19660
F560        F  0.56206656  0.89473696  0.88496865    -0.19720
F561        F  0.54412771  0.85549041  0.90398551    -0.20040
F562        F  0.56352388  0.88779500  0.93042550    -0.22710
C563        C  0.24772138  0.38058729  0.25852140    -0.05550
C564        C  0.23428163  0.37932626  0.23295552     0.00380
C565        C  0.23368334  0.35340502  0.21864416    -0.08200
C566        C  0.24512094  0.32966896  0.23143497    -0.05570
C567        C  0.25830866  0.33123143  0.25699882     0.00360
C568        C  0.26082431  0.35738931  0.27019839    -0.08100
C569        C  0.27783920  0.36257780  0.29588022     0.62270
H570        H  0.24871885  0.40025929  0.26940934     0.12970
H571        H  0.24387831  0.30951076  0.22149353     0.12980
C572        C  0.22187274  0.35026231  0.18989059     0.62510
F573        F  0.29603831  0.38427458  0.29087214    -0.22660
F574        F  0.29338610  0.33986157  0.30382781    -0.19990
F575        F  0.26040478  0.37004277  0.31737852    -0.19660
F576        F  0.23030867  0.37206078  0.17315354    -0.19720
F577        F  0.19333271  0.34943461  0.19138778    -0.20040
F578        F  0.23075676  0.32582312  0.17749192    -0.22710
C579        C  0.08290155  0.50206697  0.04814716    -0.05550
C580        C  0.05524375  0.49676196  0.05529215     0.00380
C581        C  0.04832244  0.49198580  0.08328920    -0.08200
C582        C  0.06937008  0.49182644  0.10312997    -0.05570
C583        C  0.09693410  0.49706493  0.09581507     0.00360
C584        C  0.10404303  0.50213669  0.06793125    -0.08100
C585        C  0.13389248  0.50684299  0.05909742     0.62270
H586        H  0.08795780  0.50620392  0.02701003     0.12970
H587        H  0.06441462  0.48816189  0.12465712     0.12980
C588        C  0.01858472  0.48856146  0.09213790     0.62510
F589        F  0.13659771  0.50916556  0.03075898    -0.22660
F590        F  0.15002853  0.48467178  0.06763164    -0.19990
F591        F  0.14372437  0.53111544  0.07072529    -0.19660
F592        F  0.00740293  0.46559631  0.07915508    -0.19720
F593        F  0.00423260  0.51237661  0.08483947    -0.20040
F594        F  0.01587035  0.48484271  0.12034300    -0.22710
C595        C  0.88575745  0.49843359  0.06985529    -0.05550
C596        C  0.89311988  0.49534006  0.09747101     0.00380
C597        C  0.92113379  0.49159715  0.10461496    -0.08200
C598        C  0.94115747  0.49095558  0.08341294    -0.05570
C599        C  0.93402364  0.49461572  0.05569279     0.00360
C600        C  0.90583712  0.49778184  0.04878440    -0.08100
C601        C  0.89710543  0.49864985  0.01912044     0.62270
H602        H  0.86405173  0.50080700  0.06493078     0.12970
H603        H  0.96238609  0.48734936  0.08845396     0.12980
C604        C  0.92967755  0.48873455  0.13451909     0.62510
F605        F  0.86871124  0.50114861  0.01643513    -0.22660
F606        F  0.90540244  0.47403391  0.00672952    -0.19990
F607        F  0.90944138  0.52114157  0.00610211    -0.19660
F608        F  0.91766307  0.46523484  0.14593599    -0.19720
F609        F  0.92106845  0.51194893  0.14914402    -0.20040
F610        F  0.95807894  0.48640645  0.13716949    -0.22710
C611        C  0.10428016  0.49638477  0.92050492    -0.05550
C612        C  0.09680877  0.49581957  0.89273570     0.00380
C613        C  0.06862068  0.49594045  0.88538069    -0.08200
C614        C  0.04851318  0.49625986  0.90648708    -0.05570
C615        C  0.05578366  0.49674138  0.93438497     0.00360
C616        C  0.08409303  0.49707121  0.94151580    -0.08100
C617        C  0.09268653  0.49898197  0.97122112     0.62270
H618        H  0.12607857  0.49657480  0.92554696     0.12970
H619        H  0.02705655  0.49624631  0.90121465     0.12980
C620        C  0.06002714  0.49583350  0.85535643     0.62510
F621        F  0.12116946  0.49884431  0.97406893    -0.22660
F622        F  0.08201226  0.47654264  0.98571577    -0.19990
F623        F  0.08250486  0.52362815  0.98204285    -0.19660
F624        F  0.07019705  0.47219612  0.84250947    -0.19720
F625        F  0.07052849  0.51915674  0.84219494    -0.20040
F626        F  0.03155218  0.49607389  0.85256242    -0.22710
C627        C  0.91975580  0.49566857  0.88668136    -0.05550
C628        C  0.89190046  0.49492355  0.89473660     0.00380
C629        C  0.88477001  0.49450096  0.92299476    -0.08200
C630        C  0.90609766  0.49499493  0.94252159    -0.05570
C631        C  0.93408260  0.49541078  0.93473626     0.00360
C632        C  0.94102023  0.49583232  0.90634466    -0.08100
C633        C  0.97083260  0.49635171  0.89711595     0.62270
H634        H  0.92468096  0.49600139  0.86485121     0.12970
H635        H  0.90088087  0.49515511  0.96394047     0.12980
C636        C  0.85471741  0.49349850  0.93229910     0.62510
F637        F  0.97350126  0.49689020  0.86867711    -0.22660
F638        F  0.98390298  0.47269081  0.90685194    -0.19990
F639        F  0.98338244  0.51991555  0.90759851    -0.19660
F640        F  0.84232775  0.46972927  0.92211548    -0.19720
F641        F  0.84084514  0.51667060  0.92254518    -0.20040
F642        F  0.85213517  0.49309244  0.96072943    -0.22710
C643        C  0.61458551  0.23690504  0.26337061    -0.05550
C644        C  0.61234509  0.23502235  0.23467385     0.00380
C645        C  0.63474912  0.24371161  0.21770339    -0.08200
C646        C  0.65927695  0.25269574  0.23037730    -0.05570
C647        C  0.66158470  0.25461141  0.25920415     0.00360
C648        C  0.63850656  0.24713733  0.27607494    -0.08100
C649        C  0.63821736  0.25044710  0.30728134     0.62270
H650        H  0.59714106  0.23031087  0.27593591     0.12970
H651        H  0.67680539  0.25891587  0.21775440     0.12980
C652        C  0.63237588  0.24517474  0.18651469     0.62510
F653        F  0.61155477  0.24953108  0.31793227    -0.22660
F654        F  0.64946140  0.27578764  0.31478384    -0.19990
F655        F  0.65296854  0.22898773  0.31919225    -0.19660
F656        F  0.60845133  0.25922392  0.17939197    -0.19720
F657        F  0.63180593  0.21865594  0.17556826    -0.20040
F658        F  0.65451222  0.25917758  0.17464739    -0.22710
C659        C  0.75613885  0.33320709  0.25268744    -0.05550
C660        C  0.72849184  0.33410217  0.26163697     0.00380
C661        C  0.71338499  0.35930019  0.25977309    -0.08200
C662        C  0.72644910  0.38264586  0.24791471    -0.05570
C663        C  0.75404175  0.38167345  0.23850859     0.00360
C664        C  0.76946840  0.35666968  0.24151507    -0.08100
C665        C  0.80003895  0.35459230  0.23411531     0.62270
H666        H  0.76731371  0.31372324  0.25460513     0.12970
H667        H  0.71511162  0.40200734  0.24588306     0.12980
C668        C  0.68410818  0.36193289  0.27116578     0.62510
F669        F  0.81201147  0.33092879  0.24524363    -0.22660
F670        F  0.81421428  0.37736030  0.24423865    -0.19990
F671        F  0.80328973  0.35324250  0.20583855    -0.19660
F672        F  0.68315974  0.35241516  0.29808949    -0.19720
F673        F  0.66604256  0.34655599  0.25539243    -0.20040
F674        F  0.67503610  0.38930532  0.27107398    -0.22710
C675        C  0.71705153  0.24544251  0.35091003    -0.05550
C676        C  0.73510925  0.25779626  0.33155148     0.00380
C677        C  0.76390169  0.25898046  0.33753533    -0.08200
C678        C  0.77291109  0.24983178  0.36354555    -0.05570
C679        C  0.75466077  0.23781597  0.38271591     0.00360
C680        C  0.72650086  0.23445123  0.37595008    -0.08100
C681        C  0.70674065  0.21842360  0.39458933     0.62270
H682        H  0.69519478  0.24469477  0.34644786     0.12970
H683        H  0.79460139  0.25153335  0.36883683     0.12980
C684        C  0.78583874  0.26908112  0.31722891     0.62510
F685        F  0.68106322  0.21496545  0.38260616    -0.22660
F686        F  0.70299946  0.23248117  0.41917183    -0.19990
F687        F  0.71747683  0.19223644  0.39988146    -0.19660
F688        F  0.79170015  0.29678321  0.32232414    -0.19720
F689        F  0.77761461  0.26598842  0.29017321    -0.20040
F690        F  0.80997220  0.25383727  0.32026320    -0.22710
C691        C  0.71702222  0.63794195  0.25752695    -0.05550
C692        C  0.73379629  0.66159221  0.25506211     0.00380
C693        C  0.75992240  0.65957567  0.24192665    -0.08200
C694        C  0.76909534  0.63319836  0.23314330    -0.05570
C695        C  0.75261696  0.60921621  0.23626560     0.00360
C696        C  0.72555047  0.61181405  0.24769103    -0.08100
C697        C  0.70503260  0.58786264  0.24904797     0.62270
H698        H  0.69696496  0.64012521  0.26746132     0.12970
H699        H  0.78944952  0.63111093  0.22387201     0.12980
C700        C  0.77752831  0.68517798  0.23634273     0.62510
F701        F  0.67813647  0.59747317  0.25208087    -0.22660
F702        F  0.71079228  0.57109777  0.27144542    -0.19990
F703        F  0.70607199  0.57232498  0.22506042    -0.19660
F704        F  0.78672501  0.69632999  0.26084109    -0.19720
F705        F  0.76203715  0.70494364  0.22253866    -0.20040
F706        F  0.80048448  0.67894766  0.22020759    -0.22710
C707        C  0.65876481  0.75717578  0.24519683    -0.05550
C708        C  0.65806017  0.73145011  0.25870684     0.00380
C709        C  0.63281514  0.71690689  0.26134858    -0.08200
C710        C  0.60911341  0.72807171  0.24886141    -0.05570
C711        C  0.60960246  0.75369046  0.23464013     0.00360
C712        C  0.63490243  0.76900256  0.23347714    -0.08100
C713        C  0.63747715  0.79773613  0.22053663     0.62270
H714        H  0.67844146  0.76790302  0.24373069     0.12970
H715        H  0.58993300  0.71651670  0.24996981     0.12980
C716        C  0.63087633  0.69002293  0.27780882     0.62510
F717        F  0.66102898  0.81136498  0.22939629    -0.22660
F718        F  0.61506903  0.81423017  0.22770429    -0.19990
F719        F  0.63940070  0.79525736  0.19220899    -0.19660
F720        F  0.64061692  0.69438408  0.30419587    -0.19720
F721        F  0.64651925  0.66947670  0.26521791    -0.20040
F722        F  0.60389599  0.68055347  0.27996094    -0.22710
C723        C  0.73313947  0.76035262  0.33393681    -0.05550
C724        C  0.73086795  0.73129079  0.33148316     0.00380
C725        C  0.73822245  0.71414126  0.35422608    -0.08200
C726        C  0.74930105  0.72681813  0.37778563    -0.05570
C727        C  0.75183251  0.75581588  0.38003894     0.00360
C728        C  0.74274157  0.77305050  0.35812816    -0.08100
C729        C  0.74179637  0.80461165  0.36044604     0.62270
H730        H  0.72720013  0.77319233  0.31657620     0.12970
H731        H  0.75593960  0.71396231  0.39489508     0.12980
C732        C  0.73407586  0.68272778  0.35467602     0.62510
F733        F  0.72639829  0.81646146  0.33951349    -0.22660
F734        F  0.76822651  0.81537604  0.35873506    -0.19990
F735        F  0.72969478  0.81232196  0.38524669    -0.19660
F736        F  0.75689990  0.66968952  0.34312849    -0.19720
F737        F  0.71052054  0.67518463  0.34051823    -0.20040
F738        F  0.73098887  0.67307563  0.38144514    -0.22710
C739        C  0.27603983  0.64090156  0.24521056    -0.05550
C740        C  0.25692552  0.66052843  0.25564672     0.00380
C741        C  0.22813429  0.65482985  0.25304145    -0.08200
C742        C  0.21995155  0.62864237  0.24291669    -0.05570
C743        C  0.23919886  0.60914858  0.23290080     0.00360
C744        C  0.26765255  0.61602274  0.23259598    -0.08100
C745        C  0.28905386  0.59810739  0.21780211     0.62270
H746        H  0.29795406  0.64498844  0.24714411     0.12970
H747        H  0.19811449  0.62355066  0.24217693     0.12980
C748        C  0.20532317  0.67565145  0.25967449     0.62510
F749        F  0.31412388  0.61180140  0.21493300    -0.22660
F750        F  0.27989578  0.59161272  0.19162705    -0.19990
F751        F  0.29365505  0.57386811  0.23240130    -0.19660
F752        F  0.21458103  0.70286344  0.25849901    -0.19720
F753        F  0.19458803  0.67014048  0.28563378    -0.20040
F754        F  0.18417402  0.67332381  0.24072697    -0.22710
C755        C  0.33058845  0.74536102  0.23512231    -0.05550
C756        C  0.33136905  0.73252387  0.26105707     0.00380
C757        C  0.35694855  0.72992444  0.27482982    -0.08200
C758        C  0.38056186  0.74227591  0.26296890    -0.05570
C759        C  0.37995379  0.75566469  0.23713363     0.00360
C760        C  0.35452988  0.75633561  0.22240547    -0.08100
C761        C  0.35203404  0.76754750  0.19321004     0.62270
H762        H  0.31085611  0.74655624  0.22473203     0.12970
H763        H  0.39986780  0.74150663  0.27407393     0.12980
C764        C  0.35971981  0.71313270  0.30129004     0.62510
F765        F  0.32840852  0.75772313  0.18051468    -0.22660
F766        F  0.37437590  0.75923892  0.17720051    -0.19990
F767        F  0.35036534  0.79626990  0.19381564    -0.19660
F768        F  0.34771598  0.68720180  0.29804660    -0.19720
F769        F  0.34694048  0.72686917  0.32292229    -0.20040
F770        F  0.38715966  0.70901522  0.30823174    -0.22710
C771        C  0.25533940  0.75884041  0.33624594    -0.05550
C772        C  0.25840916  0.72972233  0.33479760     0.00380
C773        C  0.25202305  0.71345178  0.35854333    -0.08200
C774        C  0.24131625  0.72695342  0.38210068    -0.05570
C775        C  0.23840173  0.75602759  0.38345251     0.00360
C776        C  0.24655569  0.77242416  0.36044926    -0.08100
C777        C  0.24773125  0.80405254  0.36158703     0.62270
H778        H  0.26037303  0.77112540  0.31814413     0.12970
H779        H  0.23537168  0.71470053  0.39996577     0.12980
C780        C  0.25696851  0.68219834  0.36006611     0.62510
F781        F  0.26299558  0.81494037  0.33981805    -0.22660
F782        F  0.26019368  0.81259906  0.38572197    -0.19990
F783        F  0.22136224  0.81501784  0.36019551    -0.19660
F784        F  0.28087785  0.67478138  0.34600498    -0.19720
F785        F  0.23461876  0.66823816  0.34912130    -0.20040
F786        F  0.26001357  0.67352042  0.38711727    -0.22710
C787        C  0.27529872  0.64057979  0.74292660    -0.05550
C788        C  0.25649619  0.66240535  0.73817821     0.00380
C789        C  0.22790401  0.65789677  0.74341784    -0.08200
C790        C  0.21907326  0.63096668  0.75071346    -0.05570
C791        C  0.23786557  0.60904315  0.75487121     0.00360
C792        C  0.26662806  0.61418610  0.75202779    -0.08100
C793        C  0.28833535  0.59249455  0.75925183     0.62270
H794        H  0.29707485  0.64417025  0.73884744     0.12970
H795        H  0.19715278  0.62714446  0.75383305     0.12980
C796        C  0.20601543  0.68061122  0.74242480     0.62510
F797        F  0.31450649  0.60408207  0.76080931    -0.22660
F798        F  0.28913928  0.57201460  0.73930796    -0.19990
F799        F  0.28231496  0.58068450  0.78463488    -0.19660
F800        F  0.19011732  0.67716324  0.71910417    -0.19720
F801        F  0.21716589  0.70710905  0.74233653    -0.20040
F802        F  0.18897377  0.67863128  0.76543020    -0.22710
C803        C  0.25596928  0.76044563  0.65796179    -0.05550
C804        C  0.25932407  0.73146119  0.66017872     0.00380
C805        C  0.25329270  0.71440516  0.63704045    -0.08200
C806        C  0.24244379  0.72703204  0.61325146    -0.05570
C807        C  0.23873526  0.75596043  0.61126186     0.00360
C808        C  0.24657256  0.77315883  0.63364697    -0.08100
C809        C  0.24646026  0.80477479  0.63180293     0.62270
H810        H  0.26094916  0.77324211  0.67561821     0.12970
H811        H  0.23680278  0.71420443  0.59581361     0.12980
C812        C  0.25871973  0.68318814  0.63651940     0.62510
F813        F  0.26159044  0.81668761  0.65284101    -0.22660
F814        F  0.21969356  0.81467918  0.63385619    -0.19990
F815        F  0.25817709  0.81335411  0.60709097    -0.19660
F816        F  0.23666764  0.66922467  0.64843531    -0.19720
F817        F  0.28278357  0.67666476  0.65037408    -0.20040
F818        F  0.26181007  0.67363822  0.60973503    -0.22710
C819        C  0.35561760  0.71801957  0.72638638    -0.05550
C820        C  0.33174375  0.73301260  0.73320604     0.00380
C821        C  0.33366072  0.75696176  0.74986823    -0.08200
C822        C  0.35998821  0.76573570  0.75854251    -0.05570
C823        C  0.38433267  0.75092077  0.75166571     0.00360
C824        C  0.38194837  0.72610203  0.73561629    -0.08100
C825        C  0.40634335  0.70749494  0.72813153     0.62270
H826        H  0.35335422  0.69967929  0.71359749     0.12970
H827        H  0.36165080  0.78448305  0.77076602     0.12980
C828        C  0.30785958  0.77278166  0.75867693     0.62510
F829        F  0.39774333  0.68125892  0.72002325    -0.22660
F830        F  0.42350534  0.70387039  0.75052437    -0.19990
F831        F  0.42085750  0.71905727  0.70629418    -0.19660
F832        F  0.29033734  0.75517043  0.77313761    -0.19720
F833        F  0.29430480  0.78276336  0.73568630    -0.19790
F834        F  0.31402492  0.79517595  0.77549125    -0.22710
C835        C  0.23731295  0.26790609  0.64678912    -0.05550
C836        C  0.25971604  0.25288425  0.65859237     0.00380
C837        C  0.26979842  0.22913797  0.64299891    -0.08200
C838        C  0.25681816  0.22227082  0.61791420    -0.05570
C839        C  0.23420779  0.23692917  0.60790015     0.00360
C840        C  0.22370391  0.25963913  0.62270937    -0.08100
C841        C  0.19800197  0.27492562  0.61301256     0.62270
H842        H  0.23037206  0.28702791  0.65586033     0.12970
H843        H  0.26430349  0.20513886  0.60538456     0.12980
C844        C  0.29417544  0.21066933  0.65069556     0.62510
F845        F  0.19022585  0.29606219  0.63087528    -0.22660
F846        F  0.17618301  0.25638547  0.61129825    -0.19990
F847        F  0.20287499  0.28647026  0.58730026    -0.19660
F848        F  0.29143342  0.20160051  0.67755003    -0.19720
F849        F  0.31868102  0.22499376  0.64646566    -0.20040
F850        F  0.29588440  0.18689642  0.63458593    -0.22710
C851        C  0.35657139  0.27892352  0.73240873    -0.05550
C852        C  0.33341653  0.26147580  0.73339662     0.00380
C853        C  0.33470370  0.23621439  0.74843875    -0.08200
C854        C  0.36020119  0.22789195  0.75949594    -0.05570
C855        C  0.38386769  0.24484445  0.75778643     0.00360
C856        C  0.38153656  0.27164783  0.74534003    -0.08100
C857        C  0.40427114  0.29342800  0.74628107     0.62270
H858        H  0.35481476  0.29868430  0.72172043     0.12970
H859        H  0.36174471  0.20781639  0.76952831     0.12980
C860        C  0.30906784  0.21866487  0.75381334     0.62510
F861        F  0.39335484  0.32004078  0.74428238    -0.22660
F862        F  0.42234895  0.28955925  0.72439675    -0.19990
F863        F  0.41845377  0.29211652  0.77090710    -0.19660
F864        F  0.29953943  0.20769328  0.72945734    -0.19720
F865        F  0.28853431  0.23496019  0.76561067    -0.20040
F866        F  0.31435021  0.19671287  0.77157020    -0.22710
C867        C  0.25744047  0.33309903  0.76130748    -0.05550
C868        C  0.25243699  0.32636738  0.73341998     0.00380
C869        C  0.23787912  0.34632543  0.71693939    -0.08200
C870        C  0.22926152  0.37154287  0.72915940    -0.05570
C871        C  0.23560313  0.37826061  0.75637203     0.00360
C872        C  0.25074608  0.35926466  0.77253471    -0.08100
C873        C  0.26168645  0.36744952  0.80066529     0.62270
H874        H  0.26771200  0.31798672  0.77425564     0.12970
H875        H  0.21744155  0.38656245  0.71741378     0.12980
C876        C  0.23101425  0.34207920  0.68669997     0.62510
F877        F  0.27947892  0.34753048  0.81117340    -0.22660
F878        F  0.24006395  0.37083466  0.81914969    -0.19990
F879        F  0.27620068  0.39220931  0.79845472    -0.19660
F880        F  0.20915709  0.32371319  0.68458511    -0.19720
F881        F  0.25383897  0.33237369  0.67226997    -0.20040
F882        F  0.22292570  0.36667684  0.67414400    -0.22710
C883        C  0.63987027  0.25239708  0.71678121    -0.05550
C884        C  0.66235573  0.25355830  0.73479226     0.00380
C885        C  0.65952958  0.24279802  0.76185624    -0.08200
C886        C  0.63346563  0.23269492  0.77038350    -0.05570
C887        C  0.61067791  0.23214015  0.75249534     0.00360
C888        C  0.61431560  0.24100056  0.72472468    -0.08100
C889        C  0.59221027  0.23789446  0.70281397     0.62270
H890        H  0.64252142  0.26055871  0.69608484     0.12970
H891        H  0.63064203  0.22539356  0.79134757     0.12980
C892        C  0.68394512  0.24106078  0.78131741     0.62510
F893        F  0.60380986  0.23758363  0.67659911    -0.22660
F894        F  0.57403514  0.26009321  0.70421155    -0.19990
F895        F  0.57795973  0.21312679  0.70612711    -0.19660
F896        F  0.69160630  0.26738981  0.78973097    -0.19720
F897        F  0.70611499  0.22838786  0.76814875    -0.20040
F898        F  0.67764125  0.22561917  0.80466704    -0.22710
C899        C  0.76092106  0.25023709  0.65803244    -0.05550
C900        C  0.73262198  0.25670363  0.65916723     0.00380
C901        C  0.71637139  0.25391006  0.63511313    -0.08200
C902        C  0.72889941  0.24318381  0.61109067    -0.05570
C903        C  0.75704608  0.23591680  0.61012852     0.00360
C904        C  0.77364050  0.24026332  0.63375853    -0.08100
C905        C  0.80475886  0.23570398  0.63329906     0.62270
H906        H  0.77305984  0.25316959  0.67648198     0.12970
H907        H  0.71664084  0.24022613  0.59273383     0.12980
C908        C  0.68623644  0.26304780  0.63432254     0.62510
F909        F  0.81726739  0.24725671  0.65617900    -0.22660
F910        F  0.81632667  0.24803249  0.61012961    -0.19990
F911        F  0.81058493  0.20754470  0.63322874    -0.19660
F912        F  0.68350008  0.28958778  0.64510750    -0.19720
F913        F  0.67002283  0.24479911  0.64939468    -0.20040
F914        F  0.67623477  0.26359060  0.60765718    -0.22710
C915        C  0.76053524  0.33129962  0.73654511    -0.05550
C916        C  0.73200879  0.33088833  0.73131065     0.00380
C917        C  0.71614098  0.35545453  0.73545338    -0.08200
C918        C  0.72932058  0.37908208  0.74630393    -0.05570
C919        C  0.75772837  0.37926100  0.75215885     0.00360
C920        C  0.77389870  0.35527166  0.74634270    -0.08100
C921        C  0.80520600  0.35509561  0.74908486     0.62270
H922        H  0.77239094  0.31249856  0.73274279     0.12970
H923        H  0.71737337  0.39776358  0.75038635     0.12980
C924        C  0.68574324  0.35741389  0.72777796     0.62510
F925        F  0.81697348  0.33208535  0.73637231    -0.22660
F926        F  0.81235741  0.35434261  0.77657024    -0.19990
F927        F  0.81637582  0.37861717  0.73681967    -0.19660
F928        F  0.66960868  0.34466426  0.74774654    -0.19720
F929        F  0.68121070  0.34486194  0.70255681    -0.20040
F930        F  0.67717917  0.38487110  0.72567492    -0.22710
C931        C  0.66019055  0.76399686  0.73312747    -0.05550
C932        C  0.66344423  0.73489122  0.73499417     0.00380
C933        C  0.64057605  0.71856140  0.74460693    -0.08200
C934        C  0.61601727  0.73230436  0.75257223    -0.05570
C935        C  0.61286686  0.76117132  0.74999351     0.00360
C936        C  0.63494300  0.77728521  0.73926574    -0.08100
C937        C  0.63133324  0.80795144  0.73235732     0.62270
H938        H  0.67751853  0.77637348  0.72593337     0.12970
H939        H  0.59872289  0.72044598  0.76072089     0.12980
C940        C  0.64086778  0.68683491  0.74577756     0.62510
F941        F  0.65354445  0.81821209  0.71727437    -0.22660
F942        F  0.62903728  0.82341515  0.75624088    -0.19990
F943        F  0.60777393  0.81158666  0.71671504    -0.19660
F944        F  0.65530393  0.67790036  0.76862102    -0.19720
F945        F  0.65262018  0.67589489  0.72206209    -0.20040
F946        F  0.61436345  0.67606516  0.74795781    -0.22710
C947        C  0.77229098  0.62998999  0.75144819    -0.05550
C948        C  0.75383433  0.60752539  0.75372708     0.00380
C949        C  0.72538588  0.61180713  0.74795788    -0.08200
C950        C  0.71695366  0.63807610  0.73828400    -0.05570
C951        C  0.73557348  0.66031494  0.73549288     0.00360
C952        C  0.76347588  0.65663754  0.74341600    -0.08100
C953        C  0.78446875  0.68003694  0.74477566     0.62270
H954        H  0.79385489  0.62684891  0.75666188     0.12970
H955        H  0.69561493  0.64140025  0.73246345     0.12980
C956        C  0.70368365  0.58937570  0.75263615     0.62510
F957        F  0.79814632  0.67885745  0.76971594    -0.22660
F958        F  0.77248110  0.70608469  0.74291525    -0.19990
F959        F  0.80362186  0.67689562  0.72368391    -0.19660
F960        F  0.70718636  0.57708782  0.77819066    -0.19720
F961        F  0.70574770  0.56939254  0.73227518    -0.20040
F962        F  0.67712974  0.60023959  0.75193752    -0.22710
C963        C  0.71346669  0.73928408  0.63828892    -0.05550
C964        C  0.73327872  0.73020895  0.65751703     0.00380
C965        C  0.76188555  0.73466430  0.65128297    -0.08200
C966        C  0.76921433  0.74657704  0.62566839    -0.05570
C967        C  0.74928945  0.75564257  0.60689649     0.00360
C968        C  0.72091975  0.75317873  0.61379443    -0.08100
C969        C  0.69865595  0.76696098  0.59651226     0.62270
H970        H  0.69175651  0.73597689  0.64284964     0.12970
H971        H  0.79082405  0.74910649  0.62008951     0.12980
C972        C  0.78497212  0.72820467  0.67140258     0.62510
F973        F  0.67312677  0.76656843  0.60968977    -0.22660
F974        F  0.69603641  0.75334305  0.57162750    -0.19990
F975        F  0.70556436  0.79453355  0.59173514    -0.19660
F976        F  0.79041705  0.69996169  0.67152092    -0.19720
F977        F  0.77776333  0.73705234  0.69757991    -0.20040
F978        F  0.80929641  0.74168419  0.66416837    -0.22710
loop_ 
_geom_bond_atom_site_label_1 
_geom_bond_atom_site_label_2 
_geom_bond_distance 
_geom_bond_site_symmetry_2 
_ccdc_geom_bond_type 
C1            C2   1.410       .  A
C1            C6   1.401       .  A
C1          C932   1.500       .  S
C2            C3   1.411       .  A
C2            H7   1.082       .  S
C3            C4   1.407       .  A
C3          C964   1.504       .  S
C4            C5   1.405       .  A
C4            H8   1.078       .  S
C5            C6   1.401       .  A
C5          C951   1.480       .  S
C6            H9   1.078       .  S
C10          C11   1.404       .  A
C10          C15   1.402       .  A
C10         C884   1.482       .  S
C11          C12   1.400       .  A
C11          H16   1.083       .  S
C12          C13   1.402       .  A
C12         C900   1.483       .  S
C13          C14   1.405       .  A
C13          H17   1.084       .  S
C14          C15   1.403       .  A
C14         C916   1.485       .  S
C15          H18   1.078       .  S
C19          C20   1.405       .  A
C19          C24   1.411       .  A
C19         C868   1.512       .  S
C20          C21   1.392       .  A
C20          H25   1.083       .  S
C21          C22   1.399       .  A
C21         C852   1.483       .  S
C22          C23   1.415       .  A
C22          H26   1.060       .  S
C23          C24   1.429       .  A
C23         C836   1.542       .  S
C24          H27   1.073       .  S
C28          C29   1.405       .  A
C28          C33   1.407       .  A
C28         C804   1.490       .  S
C29          C30   1.406       .  A
C29          H34   1.079       .  S
C30          C31   1.405       .  A
C30         C788   1.487       .  S
C31          C32   1.399       .  A
C31          H35   1.084       .  S
C32          C33   1.400       .  A
C32         C820   1.478       .  S
C33          H36   1.084       .  S
C37          C38   1.398       .  A
C37          C42   1.400       .  A
C37         C756   1.484       .  S
C38          C39   1.406       .  A
C38          H43   1.083       .  S
C39          C40   1.408       .  A
C39         C772   1.495       .  S
C40          C41   1.410       .  A
C40          H44   1.076       .  S
C41          C42   1.408       .  A
C41         C740   1.499       .  S
C42          H45   1.084       .  S
C46          C47   1.401       .  A
C46          C51   1.401       .  A
C46         C692   1.476       .  S
C47          C48   1.404       .  A
C47          H52   1.079       .  S
C48          C49   1.407       .  A
C48         C724   1.488       .  S
C49          C50   1.401       .  A
C49          H53   1.084       .  S
C50          C51   1.398       .  A
C50         C708   1.477       .  S
C51          H54   1.084       .  S
C55          C56   1.403       .  A
C55          C60   1.408       .  A
C55         C676   1.493       .  S
C56          C57   1.402       .  A
C56          H61   1.081       .  S
C57          C58   1.400       .  A
C57         C660   1.480       .  S
C58          C59   1.404       .  A
C58          H62   1.082       .  S
C59          C60   1.404       .  A
C59         C647   1.490       .  S
C60          H63   1.081       .  S
N64          N65   1.321       .  A
N64          C68   1.344       .  A
N64         Cu72   2.073       .  S
N65          C66   1.343       .  A
N65         Cu71   2.068       .  S
C66          C67   1.384       .  A
C66          H69   1.082       .  S
C67          C68   1.385       .  A
C67         C919   1.482       .  S
C68          H70   1.079       .  S
Cu71         N74   2.068       .  S
Cu72         N82   2.073       .  S
Cu73         N75   2.072       .  S
Cu73         N81   2.072       .  S
N74          N75   1.321       .  A
N74          C78   1.344       .  A
N75          C76   1.344       .  A
C76          C77   1.385       .  A
C76          H79   1.082       .  S
C77          C78   1.385       .  A
C77         C948   1.482       .  S
C78          H80   1.079       .  S
N81          N82   1.323       .  A
N81          C85   1.345       .  A
N82          C83   1.345       .  A
C83          C84   1.381       .  A
C83          H86   1.082       .  S
C84          C85   1.381       .  A
C84         C628   1.472       .  S
C85          H87   1.082       .  S
N88          N89   1.322       .  A
N88          C92   1.343       .  A
N88         Cu96   2.066       .  S
N89          C90   1.346       .  A
N89         Cu95   2.081       .  S
C90          C91   1.385       .  A
C90          H93   1.082       .  S
C91          C92   1.380       .  A
C91         C871   1.477       .  S
C92          H94   1.082       .  S
Cu95         N98   2.081       .  S
Cu96        N106   2.065       .  S
Cu97         N99   2.066       .  S
Cu97        N105   2.065       .  S
N98          N99   1.322       .  A
N98         C102   1.345       .  A
N99         C100   1.343       .  A
C100        C101   1.382       .  A
C100        H103   1.082       .  S
C101        C102   1.387       .  A
C101        C791   1.482       .  S
C102        H104   1.079       .  S
N105        N106   1.322       .  A
N105        C109   1.344       .  A
N106        C107   1.344       .  A
C107        C108   1.380       .  A
C107        H110   1.082       .  S
C108        C109   1.380       .  A
C108        C612   1.468       .  S
C109        H111   1.082       .  S
N112        N113   1.320       .  A
N112        C116   1.343       .  A
N112       Cu120   2.065       .  S
N113        C114   1.343       .  A
N113       Cu119   2.069       .  S
C114        C115   1.386       .  A
C114        H117   1.077       .  S
C115        C116   1.385       .  A
C115        C695   1.484       .  S
C116        H118   1.082       .  S
Cu119       N122   2.069       .  S
Cu120       N130   2.065       .  S
Cu121       N123   2.067       .  S
Cu121       N129   2.067       .  S
N122        N123   1.320       .  A
N122        C126   1.343       .  A
N123        C124   1.343       .  A
C124        C125   1.385       .  A
C124        H127   1.078       .  S
C125        C126   1.385       .  A
C125        C663   1.483       .  S
C126        H128   1.082       .  S
N129        N130   1.322       .  A
N129        C133   1.344       .  A
N130        C131   1.344       .  A
C131        C132   1.379       .  A
C131        H134   1.082       .  S
C132        C133   1.380       .  A
C132        C596   1.468       .  S
C133        H135   1.082       .  S
N136        N137   1.322       .  A
N136        C140   1.345       .  A
N136       Cu144   2.072       .  S
N137        C138   1.345       .  A
N137       Cu143   2.078       .  S
C138        C139   1.385       .  A
C138        H141   1.080       .  S
C139        C140   1.384       .  A
C139        C743   1.482       .  S
C140        H142   1.082       .  S
Cu143       N146   2.078       .  S
Cu144       N154   2.072       .  S
Cu145       N147   2.071       .  S
Cu145       N153   2.072       .  S
N146        N147   1.320       .  A
N146        C150   1.343       .  A
N147        C148   1.345       .  A
C148        C149   1.389       .  A
C148        H151   1.076       .  S
C149        C150   1.390       .  A
C149        C564   1.494       .  S
C150        H152   1.082       .  S
N153        N154   1.323       .  A
N153        C157   1.345       .  A
N154        C155   1.345       .  A
C155        C156   1.381       .  A
C155        H158   1.082       .  S
C156        C157   1.381       .  A
C156        C583   1.474       .  S
C157        H159   1.082       .  S
O160       Cu168   2.030       .  S
O160        C170   1.279       .  A
O161       Cu168   2.029   1_454  S
O161        C171   1.279       .  A
O162       Cu168   2.027   1_455  S
O162        C172   1.279       .  A
O163       Cu168   2.028   1_554  S
O163        C173   1.280       .  A
O164       Cu169   2.024   1_554  S
O164        C173   1.278       .  A
O165       Cu169   2.024   1_455  S
O165        C172   1.279       .  A
O166       Cu169   2.030   1_454  S
O166        C171   1.280       .  A
O167       Cu169   2.034       .  S
O167        C170   1.280       .  A
Cu168      Cu169   2.373       .  S
C170        C631   1.489       .  S
C171        C580   1.488       .  S
C172        C615   1.483       .  S
C173        C599   1.485       .  S
N174        N175   1.320       .  A
N174        C178   1.343       .  A
N174       Cu182   2.059       .  S
N175        C176   1.346       .  A
N175       Cu181   2.076       .  S
C176        C177   1.387       .  A
C176        H179   1.082       .  S
C177        C178   1.382       .  A
C177        C935   1.480       .  S
C178        H180   1.081       .  S
Cu181       N184   2.077       .  S
Cu182       N192   2.059       .  S
Cu183       N185   2.090       .  S
Cu183       N191   2.090       .  S
N184        N185   1.321       .  A
N184        C188   1.343       .  A
N185        C186   1.347       .  A
C186        C187   1.393       .  A
C186        H189   1.082       .  S
C187        C188   1.389       .  A
C187        C823   1.500       .  S
C188        H190   1.075       .  S
N191        N192   1.320       .  A
N191        C195   1.347       .  A
N192        C193   1.341       .  A
C193        C194   1.385       .  A
C193        H196   1.076       .  S
C194        C195   1.393       .  A
C194        C548   1.494       .  S
C195        H197   1.082       .  S
N198        N199   1.320       .  A
N198        C202   1.345       .  A
N198       Cu206   2.072       .  S
N199        C200   1.341       .  A
N199       Cu205   2.064       .  S
C200        C201   1.385       .  A
C200        H203   1.078       .  S
C201        C202   1.388       .  A
C201        C887   1.486       .  S
C202        H204   1.082       .  S
Cu205       N208   2.063       .  S
Cu206       N216   2.073       .  S
Cu207       N209   2.078       .  S
Cu207       N215   2.078       .  S
N208        N209   1.319       .  A
N208        C212   1.342       .  A
N209        C210   1.345       .  A
C210        C211   1.392       .  A
C210        H213   1.082       .  S
C211        C212   1.387       .  A
C211        C855   1.492       .  S
C212        H214   1.077       .  S
N215        N216   1.324       .  A
N215        C219   1.345       .  A
N216        C217   1.345       .  A
C217        C218   1.381       .  A
C217        H220   1.082       .  S
C218        C219   1.382       .  A
C218        C532   1.474       .  S
C219        H221   1.082       .  S
N222        N223   1.320       .  A
N222        C226   1.343       .  A
N222       Cu230   2.070       .  S
N223        C224   1.344       .  A
N223       Cu229   2.079       .  S
C224        C225   1.392       .  A
C224        H227   1.082       .  S
C225        C226   1.389       .  A
C225        C711   1.496       .  S
C226        H228   1.076       .  S
Cu229       N232   2.079       .  S
Cu230       N240   2.070       .  S
Cu231       N233   2.070       .  S
Cu231       N239   2.070       .  S
N232        N233   1.320       .  A
N232        C236   1.344       .  A
N233        C234   1.344       .  A
C234        C235   1.389       .  A
C234        H237   1.076       .  S
C235        C236   1.391       .  A
C235        C759   1.496       .  S
C236        H238   1.082       .  S
N239        N240   1.322       .  A
N239        C243   1.344       .  A
N240        C241   1.344       .  A
C241        C242   1.383       .  A
C241        H244   1.081       .  S
C242        C243   1.382       .  A
C242        C516   1.477       .  S
C243        H245   1.082       .  S
N246        N247   1.321       .  A
N246        C250   1.347       .  A
N246       Cu254   2.094       .  S
N247        C248   1.342       .  A
N247       Cu253   2.073       .  S
C248        C249   1.388       .  A
C248        H251   1.075       .  S
C249        C250   1.394       .  A
C249        C484   1.501       .  S
C250        H252   1.082       .  S
Cu253       N256   2.072       .  S
Cu254       N264   2.094       .  S
Cu255       N257   2.059       .  S
Cu255       N263   2.060       .  S
N256        N257   1.319       .  A
N256        C260   1.344       .  A
N257        C258   1.344       .  A
C258        C259   1.384       .  A
C258        H261   1.080       .  S
C259        C260   1.387       .  A
C259        C644   1.481       .  S
C260        H262   1.082       .  S
N263        N264   1.318       .  A
N263        C267   1.340       .  A
N264        C265   1.346       .  A
C265        C266   1.400       .  A
C265        H268   1.081       .  S
C266        C267   1.390       .  A
C266        C503   1.509       .  S
C267        H269   1.072       .  S
O270       Cu278   2.001   1_554  S
O270        C280   1.277       .  A
O271       Cu278   1.999   1_545  S
O271        C281   1.275       .  A
O272       Cu278   2.009   1_544  S
O272        C282   1.280       .  A
O273       Cu278   2.014       .  S
O273        C283   1.280       .  A
O274       Cu279   2.002       .  S
O274        C283   1.275       .  A
O275       Cu279   2.007   1_544  S
O275        C282   1.275       .  A
O276       Cu279   2.010   1_545  S
O276        C281   1.278       .  A
O277       Cu279   2.008   1_554  S
O277        C280   1.277       .  A
Cu278      Cu279   2.365       .  S
C280        C519   1.480       .  S
C281        C535   1.473       .  S
C282        C500   1.501       .  S
C283        C551   1.497       .  S
C284        C285   1.408       .  A
C284        C289   1.406       .  A
C284        C471   1.492       .  S
C285        C286   1.403       .  A
C285        H290   1.084       .  S
C286        C287   1.401       .  A
C286        C487   1.481       .  S
C287        C288   1.400       .  A
C287        H291   1.084       .  S
C288        C289   1.405       .  A
C288        C567   1.479       .  S
C289        H292   1.081       .  S
N293        N294   1.320       .  A
N293        C297   1.343       .  A
N293       Cu301   2.062       .  S
N294        C295   1.344       .  A
N294       Cu300   2.072       .  S
C295        C296   1.386       .  A
C295        H298   1.082       .  S
C296        C297   1.383       .  A
C296        C727   1.481       .  S
C297        H299   1.079       .  S
Cu300       N303   2.073       .  S
Cu301       N311   2.062       .  S
Cu302       N304   2.087       .  S
Cu302       N310   2.086       .  S
N303        N304   1.323       .  A
N303        C307   1.344       .  A
N304        C305   1.347       .  A
C305        C306   1.386       .  A
C305        H308   1.082       .  S
C306        C307   1.382       .  A
C306        C967   1.481       .  S
C307        H309   1.081       .  S
N310        N311   1.322       .  A
N310        C314   1.347       .  A
N311        C312   1.343       .  A
C312        C313   1.379       .  A
C312        H315   1.082       .  S
C313        C314   1.386       .  A
C313        C452   1.475       .  S
C314        H316   1.082       .  S
N317        N318   1.321       .  A
N317        C321   1.343       .  A
N317       Cu325   2.067       .  S
N318        C319   1.346       .  A
N318       Cu324   2.079       .  S
C319        C320   1.386       .  A
C319        H322   1.082       .  S
C320        C321   1.384       .  A
C320        C807   1.484       .  S
C321        H323   1.079       .  S
Cu324       N327   2.079       .  S
Cu325       N335   2.067       .  S
Cu326       N328   2.076       .  S
Cu326       N334   2.075       .  S
N327        N328   1.322       .  A
N327        C331   1.345       .  A
N328        C329   1.345       .  A
C329        C330   1.386       .  A
C329        H332   1.079       .  S
C330        C331   1.386       .  A
C330        C775   1.486       .  S
C331        H333   1.082       .  S
N334        N335   1.321       .  A
N334        C338   1.344       .  A
N335        C336   1.344       .  A
C336        C337   1.384       .  A
C336        H339   1.082       .  S
C337        C338   1.385       .  A
C337        C439   1.478       .  S
C338        H340   1.081       .  S
N341        N342   1.323       .  A
N341        C345   1.344       .  A
N341       Cu349   2.068       .  S
N342        C343   1.346       .  A
N342       Cu348   2.079       .  S
C343        C344   1.383       .  A
C343        H346   1.082       .  S
C344        C345   1.380       .  A
C344        C679   1.474       .  S
C345        H347   1.082       .  S
Cu348       N351   2.079       .  S
Cu349       N359   2.068       .  S
Cu350       N352   2.073       .  S
Cu350       N358   2.073       .  S
N351        N352   1.322       .  A
N351        C355   1.345       .  A
N352        C353   1.345       .  A
C353        C354   1.385       .  A
C353        H356   1.079       .  S
C354        C355   1.386       .  A
C354        C903   1.485       .  S
C355        H357   1.082       .  S
N358        N359   1.321       .  A
N358        C362   1.344       .  A
N359        C360   1.344       .  A
C360        C361   1.384       .  A
C360        H363   1.082       .  S
C361        C362   1.385       .  A
C361        C423   1.479       .  S
C362        H364   1.081       .  S
N365        N366   1.321       .  A
N365        C369   1.345       .  A
N365       Cu373   2.074       .  S
N366        C367   1.344       .  A
N366       Cu372   2.083       .  S
C367        C368   1.390       .  A
C367        H370   1.082       .  S
C368        C369   1.388       .  A
C368        C468   1.493       .  S
C369        H371   1.077       .  S
Cu372       N375   2.083       .  S
Cu373       N383   2.074       .  S
Cu374       N376   2.060       .  S
Cu374       N382   2.060       .  S
N375        N376   1.322       .  A
N375        C379   1.346       .  A
N376        C377   1.343       .  A
C377        C378   1.378       .  A
C377        H380   1.082       .  S
C378        C379   1.383       .  A
C378        C839   1.472       .  S
C379        H381   1.082       .  S
N382        N383   1.321       .  A
N382        C386   1.343       .  A
N383        C384   1.344       .  A
C384        C385   1.384       .  A
C384        H387   1.082       .  S
C385        C386   1.381       .  A
C385        C404   1.474       .  S
C386        H388   1.082       .  S
O389       Cu397   2.031       .  S
O389        C399   1.280       .  A
O390       Cu397   2.026   1_445  S
O390        C400   1.279       .  A
O391       Cu397   2.033   1_455  S
O391        C401   1.280       .  A
O392       Cu397   2.033   1_545  S
O392        C402   1.280       .  A
O393       Cu398   2.025   1_545  S
O393        C402   1.279       .  A
O394       Cu398   2.032   1_455  S
O394        C401   1.280       .  A
O395       Cu398   2.030   1_445  S
O395        C400   1.280       .  A
O396       Cu398   2.031       .  S
O396        C399   1.279       .  A
Cu397      Cu398   2.370       .  S
C399        C455   1.490       .  S
C400        C407   1.488       .  S
C401        C436   1.494       .  S
C402        C420   1.491       .  S
C403        C404   1.395       .  A
C403        C408   1.403       .  A
C403        H410   1.084       .  S
C404        C405   1.411       .  A
C405        C406   1.412       .  A
C405        C412   1.515       .  S
C406        C407   1.406       .  A
C406        H411   1.083       .  S
C407        C408   1.418       .  A
C408        C409   1.503       .  S
C409        F413   1.385       .  S
C409        F414   1.382       .  S
C409        F415   1.378       .  S
C412        F416   1.384       .  S
C412        F417   1.381       .  S
C412        F418   1.377       .  S
C419        C420   1.406       .  A
C419        C424   1.412       .  A
C419        H426   1.083       .  S
C420        C421   1.419       .  A
C421        C422   1.404       .  A
C421        C428   1.505       .  S
C422        C423   1.397       .  A
C422        H427   1.084       .  S
C423        C424   1.414       .  A
C424        C425   1.517       .  S
C425        F429   1.380       .  S
C425        F430   1.384       .  S
C425        F431   1.380       .  S
C428        F432   1.381       .  S
C428        F433   1.379       .  S
C428        F434   1.385       .  S
C435        C436   1.407       .  A
C435        C440   1.414       .  A
C435        H442   1.083       .  S
C436        C437   1.420       .  A
C437        C438   1.403       .  A
C437        C444   1.503       .  S
C438        C439   1.395       .  A
C438        H443   1.084       .  S
C439        C440   1.413       .  A
C440        C441   1.516       .  S
C441        F445   1.378       .  S
C441        F446   1.380       .  S
C441        F447   1.384       .  S
C444        F448   1.378       .  S
C444        F449   1.381       .  S
C444        F450   1.385       .  S
C451        C452   1.394       .  A
C451        C456   1.402       .  A
C451        H458   1.084       .  S
C452        C453   1.412       .  A
C453        C454   1.414       .  A
C453        C460   1.514       .  S
C454        C455   1.407       .  A
C454        H459   1.083       .  S
C455        C456   1.416       .  A
C456        C457   1.499       .  S
C457        F461   1.385       .  S
C457        F462   1.378       .  S
C457        F463   1.383       .  S
C460        F464   1.382       .  S
C460        F465   1.384       .  S
C460        F466   1.379       .  S
C467        C468   1.405       .  A
C467        C472   1.406       .  A
C467        H474   1.082       .  S
C468        C469   1.423       .  A
C469        C470   1.410       .  A
C469        C476   1.519       .  S
C470        C471   1.404       .  A
C470        H475   1.083       .  S
C471        C472   1.420       .  A
C472        C473   1.519       .  S
C473        F477   1.385       .  S
C473        F478   1.380       .  S
C473        F479   1.382       .  S
C476        F480   1.381       .  S
C476        F481   1.383       .  S
C476        F482   1.385       .  S
C483        C484   1.411       .  A
C483        C488   1.409       .  A
C483        H490   1.082       .  S
C484        C485   1.430       .  A
C485        C486   1.408       .  A
C485        C492   1.520       .  S
C486        C487   1.397       .  A
C486        H491   1.084       .  S
C487        C488   1.411       .  A
C488        C489   1.518       .  S
C489        F493   1.384       .  S
C489        F494   1.384       .  S
C489        F495   1.382       .  S
C492        F496   1.383       .  S
C492        F497   1.382       .  S
C492        F498   1.385       .  S
C499        C500   1.405       .  A
C499        C504   1.408       .  A
C499        H506   1.081       .  S
C500        C501   1.424       .  A
C501        C502   1.409       .  A
C501        C508   1.523       .  S
C502        C503   1.409       .  A
C502        H507   1.079       .  S
C503        C504   1.430       .  A
C504        C505   1.522       .  S
C505        F509   1.385       .  S
C505        F510   1.382       .  S
C505        F511   1.383       .  S
C508        F512   1.383       .  S
C508        F513   1.384       .  S
C508        F514   1.385       .  S
C515        C516   1.402       .  A
C515        C520   1.407       .  A
C515        H522   1.083       .  S
C516        C517   1.416       .  A
C517        C518   1.405       .  A
C517        C524   1.520       .  S
C518        C519   1.404       .  A
C518        H523   1.083       .  S
C519        C520   1.419       .  A
C520        C521   1.520       .  S
C521        F525   1.385       .  S
C521        F526   1.384       .  S
C521        F527   1.382       .  S
C524        F528   1.381       .  S
C524        F529   1.383       .  S
C524        F530   1.385       .  S
C531        C532   1.402       .  A
C531        C536   1.406       .  A
C531        H538   1.083       .  S
C532        C533   1.415       .  A
C533        C534   1.406       .  A
C533        C540   1.518       .  S
C534        C535   1.402       .  A
C534        H539   1.084       .  S
C535        C536   1.417       .  A
C536        C537   1.520       .  S
C537        F541   1.385       .  S
C537        F542   1.382       .  S
C537        F543   1.384       .  S
C540        F544   1.384       .  S
C540        F545   1.381       .  S
C540        F546   1.385       .  S
C547        C548   1.405       .  A
C547        C552   1.409       .  A
C547        H554   1.082       .  S
C548        C549   1.423       .  A
C549        C550   1.407       .  A
C549        C556   1.521       .  S
C550        C551   1.406       .  A
C550        H555   1.082       .  S
C551        C552   1.425       .  A
C552        C553   1.522       .  S
C553        F557   1.385       .  S
C553        F558   1.384       .  S
C553        F559   1.384       .  S
C556        F560   1.382       .  S
C556        F561   1.383       .  S
C556        F562   1.385       .  S
C563        C564   1.406       .  A
C563        C568   1.401       .  A
C563        H570   1.084       .  S
C564        C565   1.426       .  A
C565        C566   1.411       .  A
C565        C572   1.519       .  S
C566        C567   1.401       .  A
C566        H571   1.084       .  S
C567        C568   1.416       .  A
C568        C569   1.519       .  S
C569        F573   1.384       .  S
C569        F574   1.380       .  S
C569        F575   1.382       .  S
C572        F576   1.383       .  S
C572        F577   1.381       .  S
C572        F578   1.385       .  S
C579        C580   1.401       .  A
C579        C584   1.407       .  A
C579        H586   1.070       .  S
C580        C581   1.414       .  A
C581        C582   1.406       .  A
C581        C588   1.505       .  S
C582        C583   1.399       .  A
C582        H587   1.083       .  S
C583        C584   1.413       .  A
C584        C585   1.518       .  S
C585        F589   1.384       .  S
C585        F590   1.383       .  S
C585        F591   1.382       .  S
C588        F592   1.383       .  S
C588        F593   1.383       .  S
C588        F594   1.384       .  S
C595        C596   1.396       .  A
C595        C600   1.404       .  A
C595        H602   1.083       .  S
C596        C597   1.411       .  A
C597        C598   1.406       .  A
C597        C604   1.517       .  S
C598        C599   1.401       .  A
C598        H603   1.070       .  S
C599        C600   1.413       .  A
C600        C601   1.503       .  S
C601        F605   1.384       .  S
C601        F606   1.384       .  S
C601        F607   1.383       .  S
C604        F608   1.382       .  S
C604        F609   1.383       .  S
C604        F610   1.384       .  S
C611        C612   1.398       .  A
C611        C616   1.405       .  A
C611        H618   1.083       .  S
C612        C613   1.411       .  A
C613        C614   1.405       .  A
C613        C620   1.518       .  S
C614        C615   1.401       .  A
C614        H619   1.070       .  S
C615        C616   1.414       .  A
C616        C617   1.506       .  S
C617        F621   1.384       .  S
C617        F622   1.383       .  S
C617        F623   1.383       .  S
C620        F624   1.383       .  S
C620        F625   1.383       .  S
C620        F626   1.384       .  S
C627        C628   1.399       .  A
C627        C632   1.408       .  A
C627        H634   1.083       .  S
C628        C629   1.410       .  A
C629        C630   1.406       .  A
C629        C636   1.518       .  S
C630        C631   1.401       .  A
C630        H635   1.067       .  S
C631        C632   1.415       .  A
C632        C633   1.505       .  S
C633        F637   1.384       .  S
C633        F638   1.383       .  S
C633        F639   1.384       .  S
C636        F640   1.383       .  S
C636        F641   1.383       .  S
C636        F642   1.384       .  S
C643        C644   1.400       .  A
C643        C648   1.404       .  A
C643        H650   1.083       .  S
C644        C645   1.417       .  A
C645        C646   1.408       .  A
C645        C652   1.519       .  S
C646        C647   1.407       .  A
C646        H651   1.083       .  S
C647        C648   1.424       .  A
C648        C649   1.522       .  S
C649        F653   1.385       .  S
C649        F654   1.383       .  S
C649        F655   1.381       .  S
C652        F656   1.384       .  S
C652        F657   1.380       .  S
C652        F658   1.385       .  S
C659        C660   1.402       .  A
C659        C664   1.404       .  A
C659        H666   1.084       .  S
C660        C661   1.415       .  A
C661        C662   1.407       .  A
C661        C668   1.520       .  S
C662        C663   1.406       .  A
C662        H667   1.083       .  S
C663        C664   1.420       .  A
C664        C665   1.520       .  S
C665        F669   1.385       .  S
C665        F670   1.383       .  S
C665        F671   1.381       .  S
C668        F672   1.383       .  S
C668        F673   1.381       .  S
C668        F674   1.385       .  S
C675        C676   1.407       .  A
C675        C680   1.403       .  A
C675        H682   1.081       .  S
C676        C677   1.425       .  A
C677        C678   1.407       .  A
C677        C684   1.520       .  S
C678        C679   1.400       .  A
C678        H683   1.084       .  S
C679        C680   1.412       .  A
C680        C681   1.519       .  S
C681        F685   1.385       .  S
C681        F686   1.381       .  S
C681        F687   1.384       .  S
C684        F688   1.383       .  S
C684        F689   1.382       .  S
C684        F690   1.385       .  S
C691        C692   1.400       .  A
C691        C696   1.403       .  A
C691        H698   1.084       .  S
C692        C693   1.413       .  A
C693        C694   1.406       .  A
C693        C700   1.518       .  S
C694        C695   1.408       .  A
C694        H699   1.083       .  S
C695        C696   1.422       .  A
C696        C697   1.520       .  S
C697        F701   1.385       .  S
C697        F702   1.381       .  S
C697        F703   1.383       .  S
C700        F704   1.381       .  S
C700        F705   1.383       .  S
C700        F706   1.385       .  S
C707        C708   1.397       .  A
C707        C712   1.408       .  A
C707        H714   1.084       .  S
C708        C709   1.411       .  A
C709        C710   1.405       .  A
C709        C716   1.519       .  S
C710        C711   1.409       .  A
C710        H715   1.082       .  S
C711        C712   1.428       .  A
C712        C713   1.519       .  S
C713        F717   1.385       .  S
C713        F718   1.383       .  S
C713        F719   1.381       .  S
C716        F720   1.384       .  S
C716        F721   1.382       .  S
C716        F722   1.384       .  S
C723        C724   1.405       .  A
C723        C728   1.405       .  A
C723        H730   1.083       .  S
C724        C725   1.423       .  A
C725        C726   1.405       .  A
C725        C732   1.522       .  S
C726        C727   1.402       .  A
C726        H731   1.084       .  S
C727        C728   1.418       .  A
C728        C729   1.520       .  S
C729        F733   1.385       .  S
C729        F734   1.380       .  S
C729        F735   1.384       .  S
C732        F736   1.382       .  S
C732        F737   1.383       .  S
C732        F738   1.385       .  S
C739        C740   1.410       .  A
C739        C744   1.404       .  A
C739        H746   1.082       .  S
C740        C741   1.425       .  A
C741        C742   1.408       .  A
C741        C748   1.520       .  S
C742        C743   1.403       .  A
C742        H747   1.084       .  S
C743        C744   1.414       .  A
C744        C745   1.520       .  S
C745        F749   1.385       .  S
C745        F750   1.384       .  S
C745        F751   1.380       .  S
C748        F752   1.382       .  S
C748        F753   1.383       .  S
C748        F754   1.385       .  S
C755        C756   1.401       .  A
C755        C760   1.409       .  A
C755        H762   1.084       .  S
C756        C757   1.415       .  A
C757        C758   1.405       .  A
C757        C764   1.521       .  S
C758        C759   1.408       .  A
C758        H763   1.082       .  S
C759        C760   1.427       .  A
C760        C761   1.520       .  S
C761        F765   1.385       .  S
C761        F766   1.383       .  S
C761        F767   1.381       .  S
C764        F768   1.384       .  S
C764        F769   1.381       .  S
C764        F770   1.385       .  S
C771        C772   1.407       .  A
C771        C776   1.406       .  A
C771        H778   1.083       .  S
C772        C773   1.423       .  A
C773        C774   1.409       .  A
C773        C780   1.521       .  S
C774        C775   1.404       .  A
C774        H779   1.084       .  S
C775        C776   1.418       .  A
C776        C777   1.520       .  S
C777        F781   1.385       .  S
C777        F782   1.384       .  S
C777        F783   1.380       .  S
C780        F784   1.383       .  S
C780        F785   1.382       .  S
C780        F786   1.385       .  S
C787        C788   1.406       .  A
C787        C792   1.404       .  A
C787        H794   1.083       .  S
C788        C789   1.420       .  A
C789        C790   1.406       .  A
C789        C796   1.519       .  S
C790        C791   1.404       .  A
C790        H795   1.085       .  S
C791        C792   1.418       .  A
C792        C793   1.520       .  S
C793        F797   1.385       .  S
C793        F798   1.380       .  S
C793        F799   1.384       .  S
C796        F800   1.383       .  S
C796        F801   1.382       .  S
C796        F802   1.384       .  S
C803        C804   1.405       .  A
C803        C808   1.406       .  A
C803        H810   1.083       .  S
C804        C805   1.422       .  A
C805        C806   1.407       .  A
C805        C812   1.521       .  S
C806        C807   1.403       .  A
C806        H811   1.084       .  S
C807        C808   1.419       .  A
C808        C809   1.520       .  S
C809        F813   1.385       .  S
C809        F814   1.380       .  S
C809        F815   1.384       .  S
C812        F816   1.382       .  S
C812        F817   1.383       .  S
C812        F818   1.385       .  S
C819        C820   1.396       .  A
C819        C824   1.408       .  A
C819        H826   1.084       .  S
C820        C821   1.410       .  A
C821        C822   1.408       .  A
C821        C828   1.518       .  S
C822        C823   1.412       .  A
C822        H827   1.082       .  S
C823        C824   1.429       .  A
C824        C825   1.520       .  S
C825        F829   1.385       .  S
C825        F830   1.383       .  S
C825        F831   1.382       .  S
C828        F832   1.383       .  S
C828        F833   1.383       .  S
C828        F834   1.384       .  S
C835        C836   1.424       .  A
C835        C840   1.403       .  A
C835        H842   1.071       .  S
C836        C837   1.450       .  A
C837        C838   1.413       .  A
C837        C844   1.522       .  S
C838        C839   1.389       .  A
C838        H843   1.083       .  S
C839        C840   1.399       .  A
C840        C841   1.519       .  S
C841        F845   1.384       .  S
C841        F846   1.384       .  S
C841        F847   1.382       .  S
C844        F848   1.378       .  S
C844        F849   1.384       .  S
C844        F850   1.386       .  S
C851        C852   1.399       .  A
C851        C856   1.408       .  A
C851        H858   1.084       .  S
C852        C853   1.416       .  A
C853        C854   1.405       .  A
C853        C860   1.520       .  S
C854        C855   1.406       .  A
C854        H859   1.082       .  S
C855        C856   1.425       .  A
C856        C857   1.519       .  S
C857        F861   1.385       .  S
C857        F862   1.381       .  S
C857        F863   1.383       .  S
C860        F864   1.377       .  S
C860        F865   1.383       .  S
C860        F866   1.385       .  S
C867        C868   1.414       .  A
C867        C872   1.406       .  A
C867        H874   1.082       .  S
C868        C869   1.434       .  A
C869        C870   1.409       .  A
C869        C876   1.520       .  S
C870        C871   1.396       .  A
C870        H875   1.083       .  S
C871        C872   1.410       .  A
C872        C873   1.520       .  S
C873        F877   1.385       .  S
C873        F878   1.381       .  S
C873        F879   1.384       .  S
C876        F880   1.381       .  S
C876        F881   1.382       .  S
C876        F882   1.385       .  S
C883        C884   1.401       .  A
C883        C888   1.402       .  A
C883        H890   1.084       .  S
C884        C885   1.416       .  A
C885        C886   1.409       .  A
C885        C892   1.519       .  S
C886        C887   1.408       .  A
C886        H891   1.083       .  S
C887        C888   1.421       .  A
C888        C889   1.521       .  S
C889        F893   1.385       .  S
C889        F894   1.381       .  S
C889        F895   1.383       .  S
C892        F896   1.381       .  S
C892        F897   1.383       .  S
C892        F898   1.385       .  S
C899        C900   1.402       .  A
C899        C904   1.408       .  A
C899        H906   1.083       .  S
C900        C901   1.418       .  A
C901        C902   1.406       .  A
C901        C908   1.521       .  S
C902        C903   1.404       .  A
C902        H907   1.083       .  S
C903        C904   1.420       .  A
C904        C905   1.519       .  S
C905        F909   1.385       .  S
C905        F910   1.383       .  S
C905        F911   1.380       .  S
C908        F912   1.383       .  S
C908        F913   1.381       .  S
C908        F914   1.385       .  S
C915        C916   1.404       .  A
C915        C920   1.406       .  A
C915        H922   1.083       .  S
C916        C917   1.419       .  A
C917        C918   1.406       .  A
C917        C924   1.521       .  S
C918        C919   1.404       .  A
C918        H923   1.083       .  S
C919        C920   1.418       .  A
C920        C921   1.520       .  S
C921        F925   1.385       .  S
C921        F926   1.380       .  S
C921        F927   1.384       .  S
C924        F928   1.381       .  S
C924        F929   1.383       .  S
C924        F930   1.385       .  S
C931        C932   1.409       .  A
C931        C936   1.406       .  A
C931        H938   1.082       .  S
C932        C933   1.430       .  A
C933        C934   1.408       .  A
C933        C940   1.524       .  S
C934        C935   1.399       .  A
C934        H939   1.083       .  S
C935        C936   1.414       .  A
C936        C937   1.519       .  S
C937        F941   1.385       .  S
C937        F942   1.380       .  S
C937        F943   1.384       .  S
C940        F944   1.382       .  S
C940        F945   1.382       .  S
C940        F946   1.385       .  S
C947        C948   1.404       .  A
C947        C952   1.403       .  A
C947        H954   1.085       .  S
C948        C949   1.420       .  A
C949        C950   1.406       .  A
C949        C956   1.520       .  S
C950        C951   1.403       .  A
C950        H955   1.083       .  S
C951        C952   1.416       .  A
C952        C953   1.516       .  S
C953        F957   1.384       .  S
C953        F958   1.380       .  S
C953        F959   1.382       .  S
C956        F960   1.383       .  S
C956        F961   1.380       .  S
C956        F962   1.385       .  S
C963        C964   1.410       .  A
C963        C968   1.406       .  A
C963        H970   1.082       .  S
C964        C965   1.429       .  A
C965        C966   1.410       .  A
C965        C972   1.520       .  S
C966        C967   1.399       .  A
C966        H971   1.083       .  S
C967        C968   1.413       .  A
C968        C969   1.520       .  S
C969        F973   1.385       .  S
C969        F974   1.380       .  S
C969        F975   1.384       .  S
C972        F976   1.381       .  S
C972        F977   1.381       .  S
C972        F978   1.385       .  S
