geometry optimzed in LAMMPS
_audit_creation_date              2020-11-30 
_audit_creation_method            'lammps2cif' 
_symmetry_space_group_name_H-M    'P1' 
_symmetry_Int_Tables_number       1 
_symmetry_cell_setting            triclinic 
loop_ 
_symmetry_equiv_pos_as_xyz 
  x,y,z 
_cell_length_a                    40.36337244526469 
_cell_length_b                    40.40711182938871 
_cell_length_c                    40.50130716759159 
_cell_angle_alpha                 86.5489424049731 
_cell_angle_beta                  85.86359054373105 
_cell_angle_gamma                 93.60407322871319 
loop_ 
_atom_site_label 
_atom_site_type_symbol 
_atom_site_fract_x 
_atom_site_fract_y 
_atom_site_fract_z 
_atom_site_charge 
C1          C  0.10286852  0.27556765  0.52025338     0.03350
C2          C  0.13578712  0.27266166  0.02865835    -0.12800
C3          C  0.14873059  0.24111486  0.03210318     0.00850
C4          C  0.12814087  0.21270429  0.02703788    -0.11320
C5          C  0.09526118  0.21542241  0.51834556     0.03340
C6          C  0.08340930  0.24707166  0.51388100    -0.10750
H7          H  0.15034260  0.29455747  0.03486292     0.08940
H8          H  0.13731326  0.18834376  0.03143135     0.06470
H9          H  0.05795309  0.24953636  0.50769450     0.06310
C10         C  0.32341720  0.19274033  0.10013719     0.03350
C11         C  0.29199341  0.19519963  0.08755694    -0.12800
C12         C  0.27891023  0.22650616  0.08228131     0.00830
C13         C  0.29827318  0.25530352  0.08870412    -0.11320
C14         C  0.32957113  0.25307137  0.10154916     0.03340
C15         C  0.34094191  0.22167074  0.10866038    -0.10750
H16         H  0.27859508  0.17312148  0.08016358     0.08940
H17         H  0.28927678  0.27948418  0.08285826     0.06470
H18         H  0.36479521  0.21981837  0.11908692     0.06310
C19         C  0.17019502  0.44866113  0.20308967     0.03350
C20         C  0.17243494  0.46043595  0.23489691    -0.12800
C21         C  0.20360324  0.46401714  0.24831241     0.00850
C22         C  0.23249683  0.45742075  0.22893085    -0.11320
C23         C  0.23044564  0.44625520  0.19686535     0.03340
C24         C  0.19905025  0.43986587  0.18533871    -0.10750
H25         H  0.15032884  0.46762453  0.24871327     0.08940
H26         H  0.25661726  0.46257642  0.23833637     0.06470
H27         H  0.19709192  0.42996990  0.16122170     0.06310
C28         C  0.25652873  0.02385758  0.42259586     0.03350
C29         C  0.22835035  0.02873990  0.44352100    -0.12800
C30         C  0.19639336  0.02515211  0.43217875     0.00850
C31         C  0.19295025  0.01857254  0.39883651    -0.11320
C32         C  0.22099601  0.01345677  0.37759716     0.03340
C33         C  0.25276860  0.01580238  0.38977653    -0.10750
H34         H  0.23121000  0.03330456  0.46930410     0.08940
H35         H  0.16831329  0.01490998  0.39008674     0.06470
H36         H  0.27437666  0.01024566  0.37412705     0.06310
C37         C  0.00598182  0.12225008  0.27241542     0.03350
C38         C  0.99668160  0.15503679  0.27461204    -0.12800
C39         C  0.99259324  0.16873379  0.30574103     0.00850
C40         C  0.99780319  0.14909570  0.33455690    -0.11320
C41         C  0.00738041  0.11634294  0.33260914     0.03340
C42         C  0.01271142  0.10383011  0.30131431    -0.10750
H43         H  0.99114887  0.16925285  0.25238353     0.08940
H44         H  0.99219368  0.15869562  0.35857602     0.06470
H45         H  0.02005262  0.07861913  0.29948000     0.06310
C46         C  0.42847055  0.34525707  0.35475239     0.03350
C47         C  0.43844986  0.31268274  0.35227641    -0.12800
C48         C  0.44270721  0.29922229  0.32097632     0.00850
C49         C  0.43682792  0.31882655  0.29230676    -0.11320
C50         C  0.42713033  0.35139400  0.29469075     0.03340
C51         C  0.42191033  0.36381655  0.32588187    -0.10750
H52         H  0.44408831  0.29837411  0.37440489     0.08940
H53         H  0.44176183  0.30947793  0.26803440     0.06470
H54         H  0.41449108  0.38904197  0.32748516     0.06310
O55         O  0.02840370  0.41538167  0.01452642    -0.86270
O56         O  0.42727035  0.46313870  0.16833351    -0.86430
O57         O  0.03175594  0.43543665  0.12783789    -0.88100
O58         O  0.44210585  0.37985328  0.10086911    -0.86860
O59         O  0.39797993  0.39342691  0.07109577    -0.86450
O60         O  0.05362466  0.48892298  0.11522299    -0.87820
O61         O  0.45803270  0.41931146  0.15446701    -0.86300
O62         O  0.01637347  0.39357595  0.06793111    -0.85880
Zr63       Zr  0.48113175  0.42945084  0.09806364     2.84310
O64         O  0.42803172  0.44875978  0.09910723    -1.07860
O65         O  0.01726745  0.46522800  0.06245937    -1.08590
C66         C  0.03059194  0.39303311  0.03843694     1.06840
C67         C  0.43925738  0.43462842  0.17459003     1.06780
C68         C  0.05415436  0.45954015  0.12934029     1.09770
C69         C  0.41309990  0.37364231  0.08999902     1.07550
H70         H  0.48961446  0.48244731  0.13972338     0.33100
O71         O  0.48195396  0.48291589  0.11766719    -1.28810
H72         H  0.46171358  0.40737864  0.03720943     0.32780
O73         O  0.46216025  0.42959739  0.04479384    -1.30490
O74         O  0.39730185  0.05196283  0.11383144    -0.86260
O75         O  0.49953036  0.50475221  0.45978743    -0.87760
O76         O  0.01173655  0.04898885  0.13215979    -0.86340
O77         O  0.35884852  0.44690989  0.08557673    -0.86390
O78         O  0.41441182  0.41854492  0.99571164    -0.86100
O79         O  0.06759320  0.01995878  0.04341940    -0.85900
O80         O  0.48247294  0.08835642  0.02772553    -0.86280
O81         O  0.39404036  0.03141423  0.99895792    -0.85740
O82         O  0.02685192  0.07524280  0.05745058    -0.86800
O83         O  0.37274902  0.47785277  0.01093201    -0.85960
O84         O  0.45834642  0.03645364  0.15483983    -0.86360
O85         O  0.05491535  0.48886155  0.99971790    -0.86080
O86         O  0.46779197  0.43178067  0.47325778    -0.85730
O87         O  0.37273377  0.47642789  0.12993783    -0.86140
O88         O  0.40973879  0.07422692  0.06050200    -0.86430
O89         O  0.46855914  0.04854260  0.47344103    -0.87770
Zr90       Zr  0.42827452  0.50170464  0.11879242     2.83100
Zr91       Zr  0.49792024  0.46604856  0.00931569     2.83500
Zr92       Zr  0.01718451  0.01890284  0.08139296     2.84090
Zr93       Zr  0.40856038  0.44902504  0.04641397     2.83360
Zr94       Zr  0.44433407  0.03819405  0.02970363     2.84220
O95         O  0.44404500  0.48476464  0.01018497    -1.08340
O96         O  0.46354607  0.03816346  0.08301034    -1.07850
C97         C  0.39556421  0.07451267  0.09004578     1.06810
C98         C  0.48792277  0.03346697  0.45355054     1.09430
C99         C  0.48790248  0.05053798  0.15505540     1.06990
C100        C  0.35277120  0.45766355  0.11474598     1.07350
C101        C  0.43844307  0.41734959  0.47290929     1.06930
C102        C  0.07461330  0.50783532  0.01508465     1.06480
C103        C  0.01137334  0.09493309  0.03868259     1.06910
C104        C  0.37227432  0.00692079  0.99615742     1.06420
H105        H  0.01263665  0.03382335  0.01396380     0.33100
O106        O  0.49777007  0.01912906  0.02869618    -1.29440
H107        H  0.38604099  0.00989585  0.06637413     0.33120
O108        O  0.40837287  0.50253683  0.06566903    -1.30830
C109        C  0.44720013  0.40425509  0.26270218    -0.21080
C110        C  0.42705276  0.37436533  0.26488244    -0.09130
C111        C  0.40818883  0.36653047  0.23828787     0.29730
C112        C  0.41046309  0.38778006  0.20953655    -0.21080
C113        C  0.43127692  0.41714986  0.20714299    -0.09140
C114        C  0.44949631  0.42542339  0.23395953     0.29740
F115        F  0.47124382  0.45264903  0.23141803    -0.19660
H116        H  0.46227289  0.41049134  0.28281469     0.18100
H117        H  0.39698385  0.38070753  0.18857797     0.18110
F118        F  0.38801709  0.33821711  0.23997423    -0.19650
C119        C  0.41591534  0.36728860  0.44511297    -0.21080
C120        C  0.43288354  0.39891708  0.44319970    -0.09130
C121        C  0.44768849  0.41227128  0.41242685     0.29730
C122        C  0.44630887  0.39427355  0.38443232    -0.21080
C123        C  0.42973558  0.36258304  0.38597384    -0.09140
C124        C  0.41450871  0.34902963  0.41664454     0.29740
F125        F  0.39810416  0.31852578  0.41898828    -0.19660
H126        H  0.40463569  0.35642969  0.46868463     0.18100
H127        H  0.45863397  0.40519516  0.36131534     0.18110
F128        F  0.46375284  0.44295082  0.40935568    -0.19650
C129        C  0.48341786  0.07440774  0.24367376    -0.21080
C130        C  0.00284478  0.10460449  0.24162009    -0.09130
C131        C  0.01840153  0.11686491  0.21069453     0.29730
C132        C  0.01443977  0.09888608  0.18239859    -0.21080
C133        C  0.49444700  0.06890480  0.18464379    -0.09140
C134        C  0.47926391  0.05673971  0.21571676     0.29740
F135        F  0.46057588  0.02741749  0.21924217    -0.19660
H136        H  0.47100099  0.06453423  0.26714509     0.18100
H137        H  0.02632494  0.10869588  0.15869072     0.18110
F138        F  0.03764607  0.14580790  0.20796787    -0.19650
C139        C  0.99236554  0.06087209  0.36286353    -0.21080
C140        C  0.00698090  0.09352861  0.36293249    -0.09130
C141        C  0.01865353  0.10442283  0.39262455     0.29730
C142        C  0.51380916  0.08383056  0.42178812    -0.21080
C143        C  0.49804153  0.05185514  0.42172305    -0.09140
C144        C  0.48815254  0.04012885  0.39192483     0.29740
F145        F  0.47212439  0.00967682  0.39140516    -0.19660
H146        H  0.98254869  0.05184682  0.34065017     0.18100
H147        H  0.52160478  0.09315864  0.44474802     0.18110
F148        F  0.03424921  0.13505930  0.39364411    -0.19650
C149        C  0.99577683  0.22487566  0.32903414    -0.21080
C150        C  0.48019444  0.20242816  0.30886785    -0.09130
C151        C  0.45198430  0.21193570  0.29309955     0.29730
C152        C  0.43988009  0.24325026  0.29736797    -0.21080
C153        C  0.45540342  0.26567769  0.31758634    -0.09140
C154        C  0.48367731  0.25620858  0.33329289     0.29740
F155        F  0.00029286  0.27760291  0.35188455    -0.19660
H156        H  0.01762225  0.21820279  0.34129198     0.18100
H157        H  0.41799917  0.24987883  0.28515060     0.18110
F158        F  0.43535880  0.19054429  0.27451657    -0.19650
C159        C  0.13925131  0.04218913  0.44844867    -0.21080
C160        C  0.16660449  0.02410067  0.45598883    -0.09130
C161        C  0.16429256  0.50293981  0.48520246     0.29730
C162        C  0.13484272  0.49946192  0.50590601    -0.21080
C163        C  0.10732434  0.01676228  0.49766801    -0.09140
C164        C  0.10976652  0.03847190  0.46904852     0.29740
F165        F  0.08309355  0.05493872  0.46032179    -0.19660
H166        H  0.14044706  0.05848057  0.42609253     0.18100
H167        H  0.13288813  0.48188089  0.52735197     0.18110
F168        F  0.18958641  0.48378760  0.49247148    -0.19650
C169        C  0.29646088  0.98854807  0.44812094    -0.21080
C170        C  0.28849529  0.02036328  0.43742976    -0.09130
C171        C  0.30898764  0.04804704  0.44445934     0.29730
C172        C  0.33686921  0.04373216  0.46273769    -0.21080
C173        C  0.34429943  0.01176352  0.47463629    -0.09140
C174        C  0.32386636  0.48410180  0.46651243     0.29740
F175        F  0.32977800  0.45253051  0.47670319    -0.19660
H176        H  0.28062822  0.46703525  0.44312285     0.18100
H177        H  0.35202571  0.06544111  0.46836903     0.18110
F178        F  0.30160708  0.07915281  0.43426828    -0.19650
C179        C  0.08042055  0.43767538  0.17995396    -0.21080
C180        C  0.08339974  0.45391782  0.14807673    -0.09130
C181        C  0.11463797  0.46782934  0.13485510     0.29730
C182        C  0.14216224  0.46620503  0.15333128    -0.21080
C183        C  0.13950906  0.45036053  0.18530941    -0.09140
C184        C  0.10835488  0.43606748  0.19866826     0.29740
F185        F  0.10506165  0.42034570  0.22940204    -0.19660
H186        H  0.05641055  0.42711968  0.19062450     0.18100
H187        H  0.16579238  0.47765909  0.14257843     0.18110
F188        F  0.11860423  0.48307247  0.10386209    -0.19650
C189        C  0.28993851  0.43297200  0.18624471    -0.21080
C190        C  0.26080934  0.44455983  0.17407998    -0.09130
C191        C  0.26169058  0.45678130  0.14048923     0.29730
C192        C  0.29127331  0.45815292  0.12014491    -0.21080
C193        C  0.32055598  0.44839229  0.13307074    -0.09140
C194        C  0.31963594  0.43521001  0.16608150     0.29740
F195        F  0.34786521  0.42579047  0.17919423    -0.19660
H196        H  0.28998736  0.42314951  0.21171607     0.18100
H197        H  0.29185795  0.46919537  0.09503829     0.18110
F198        F  0.23481936  0.46999704  0.12788643    -0.19650
C199        C  0.19613933  0.00775499  0.28920238    -0.21080
C200        C  0.20674409  0.47639449  0.28176029    -0.09130
C201        C  0.22201395  0.45752964  0.30593560     0.29730
C202        C  0.22692890  0.46999308  0.33681074    -0.21080
C203        C  0.21658180  0.00140084  0.34423443    -0.09140
C204        C  0.20103448  0.02023643  0.32020523     0.29740
F205        F  0.19140012  0.05097656  0.32645156    -0.19660
H206        H  0.18470124  0.02282102  0.27073821     0.18100
H207        H  0.23845086  0.45490054  0.35519864     0.18110
F208        F  0.23168414  0.42677277  0.29981114    -0.19650
C209        C  0.37436231  0.16347430  0.08673511    -0.21080
C210        C  0.34101093  0.16151749  0.09967971    -0.09130
C211        C  0.32576774  0.13023589  0.11138330     0.29730
C212        C  0.34388066  0.10162797  0.10991426    -0.21080
C213        C  0.37707478  0.10403650  0.09638642    -0.09140
C214        C  0.39216379  0.13528295  0.08527923     0.29740
F215        F  0.42428424  0.13849187  0.07251536    -0.19660
H216        H  0.38669255  0.18699031  0.07697673     0.18100
H217        H  0.33175050  0.07760280  0.11825188     0.18110
F218        F  0.29365415  0.12735125  0.12423223    -0.19650
C219        C  0.38620267  0.28284136  0.09238486    -0.21080
C220        C  0.35232827  0.28314123  0.10377060    -0.09130
C221        C  0.34045508  0.31276423  0.11502626     0.29730
C222        C  0.36139278  0.34179712  0.11260422    -0.21080
C223        C  0.39460022  0.34170136  0.09958202    -0.09140
C224        C  0.40726088  0.31182645  0.09051679     0.29740
F225        F  0.43906901  0.31126271  0.07725547    -0.19660
H226        H  0.39604719  0.26054273  0.08318789     0.18100
H227        H  0.35133265  0.36479737  0.11975391     0.18110
F228        F  0.30851738  0.31388225  0.12770953    -0.19650
C229        C  0.03957960  0.18570382  0.03469088    -0.21080
C230        C  0.07181916  0.18544122  0.01877990    -0.09130
C231        C  0.08191625  0.15573502  0.00600938     0.29730
C232        C  0.06107646  0.12666655  0.01112294    -0.21080
C233        C  0.02961681  0.12682783  0.02827806    -0.09140
C234        C  0.01857232  0.15670225  0.03922939     0.29740
F235        F  0.48864964  0.15733458  0.05656302    -0.19660
H236        H  0.03119668  0.20797057  0.04529443     0.18100
H237        H  0.06989710  0.10366326  0.00255622     0.18110
F238        F  0.11210074  0.15458172  0.48918072    -0.19650
C239        C  0.09498585  0.33579016  0.50449885    -0.21080
C240        C  0.08598973  0.30660701  0.02461733    -0.09130
C241        C  0.05920275  0.30628700  0.04874695     0.29730
C242        C  0.04151540  0.33437670  0.05250782    -0.21080
C243        C  0.04996156  0.36369069  0.03239123    -0.09140
C244        C  0.07693688  0.36420773  0.00815424     0.29740
F245        F  0.08621655  0.39214866  0.48854943    -0.19660
H246        H  0.11557238  0.33636141  0.48573629     0.18100
H247        H  0.02085485  0.33299188  0.07127562     0.18110
F248        F  0.05017221  0.27862788  0.06892119    -0.19650
C249        C  0.24162308  0.25364803  0.04300909    -0.21080
C250        C  0.24578822  0.22949682  0.06866054    -0.09130
C251        C  0.21786258  0.20908180  0.08183088     0.29730
C252        C  0.18660881  0.21300782  0.06979025    -0.21080
C253        C  0.18236311  0.23727486  0.04429813    -0.09140
C254        C  0.21032102  0.25754934  0.03092552     0.29740
F255        F  0.20756907  0.28064283  0.00568857    -0.19660
H256        H  0.26275637  0.26941195  0.03207042     0.18100
H257        H  0.16546634  0.19741195  0.08097596     0.18110
F258        F  0.22046930  0.18612998  0.10722952    -0.19650
C259        C  0.10286849  0.27556766  0.02025342     0.03350
C260        C  0.13578714  0.27266164  0.52865831    -0.12800
C261        C  0.14873060  0.24111484  0.53210315     0.00850
C262        C  0.12814087  0.21270427  0.52703786    -0.11320
C263        C  0.09526119  0.21542242  0.01834559     0.03340
C264        C  0.08340929  0.24707166  0.01388103    -0.10750
H265        H  0.15034262  0.29455745  0.53486288     0.08940
H266        H  0.13731325  0.18834374  0.53143133     0.06470
H267        H  0.05795308  0.24953636  0.00769452     0.06310
C268        C  0.32341718  0.19274029  0.60013721     0.03350
C269        C  0.29199339  0.19519959  0.58755696    -0.12800
C270        C  0.27891021  0.22650613  0.58228134     0.00830
C271        C  0.29827316  0.25530349  0.58870415    -0.11320
C272        C  0.32957112  0.25307133  0.60154919     0.03340
C273        C  0.34094189  0.22167070  0.60866041    -0.10750
H274        H  0.27859506  0.17312145  0.58016359     0.08940
H275        H  0.28927677  0.27948415  0.58285828     0.06470
H276        H  0.36479518  0.21981832  0.61908695     0.06310
C277        C  0.17019502  0.44866111  0.70308974     0.03350
C278        C  0.17243497  0.46043593  0.73489698    -0.12800
C279        C  0.20360327  0.46401710  0.74831247     0.00850
C280        C  0.23249685  0.45742071  0.72893089    -0.11320
C281        C  0.23044564  0.44625515  0.69686539     0.03340
C282        C  0.19905024  0.43986583  0.68533878    -0.10750
H283        H  0.15032887  0.46762452  0.74871335     0.08940
H284        H  0.25661729  0.46257639  0.73833638     0.06470
H285        H  0.19709189  0.42996986  0.66122177     0.06310
C286        C  0.25652873  0.02385757  0.92259586     0.03350
C287        C  0.22835035  0.02873990  0.94352100    -0.12800
C288        C  0.19639337  0.02515211  0.93217875     0.00850
C289        C  0.19295025  0.01857254  0.89883651    -0.11320
C290        C  0.22099602  0.01345677  0.87759716     0.03340
C291        C  0.25276860  0.01580237  0.88977653    -0.10750
H292        H  0.23121001  0.03330456  0.96930410     0.08940
H293        H  0.16831329  0.01490998  0.89008674     0.06470
H294        H  0.27437666  0.01024565  0.87412705     0.06310
C295        C  0.00598183  0.12225009  0.77241542     0.03350
C296        C  0.99668161  0.15503680  0.77461203    -0.12800
C297        C  0.99259325  0.16873380  0.80574103     0.00850
C298        C  0.99780319  0.14909570  0.83455689    -0.11320
C299        C  0.00738042  0.11634295  0.83260913     0.03340
C300        C  0.01271144  0.10383013  0.80131431    -0.10750
H301        H  0.99114888  0.16925286  0.75238353     0.08940
H302        H  0.99219368  0.15869563  0.85857602     0.06470
H303        H  0.02005265  0.07861914  0.79947999     0.06310
C304        C  0.42847056  0.34525706  0.85475239     0.03350
C305        C  0.43844988  0.31268274  0.85227641    -0.12800
C306        C  0.44270721  0.29922228  0.82097633     0.00850
C307        C  0.43682789  0.31882654  0.79230677    -0.11320
C308        C  0.42713030  0.35139398  0.79469077     0.03340
C309        C  0.42191032  0.36381653  0.82588188    -0.10750
H310        H  0.44408834  0.29837412  0.87440490     0.08940
H311        H  0.44176180  0.30947792  0.76803441     0.06470
H312        H  0.41449107  0.38904196  0.82748518     0.06310
O313        O  0.02840391  0.41538168  0.51452650    -0.86270
O314        O  0.42727048  0.46313876  0.66833360    -0.86430
O315        O  0.03175607  0.43543651  0.62783769    -0.88100
O316        O  0.44210593  0.37985324  0.60086896    -0.86860
O317        O  0.39798004  0.39342684  0.57109560    -0.86450
O318        O  0.05362473  0.48892288  0.61522292    -0.87820
O319        O  0.45803280  0.41931153  0.65446709    -0.86300
O320        O  0.01637379  0.39357604  0.56793123    -0.85880
Zr321      Zr  0.48113175  0.42945088  0.59806368     2.84310
O322        O  0.42803146  0.44875951  0.59910751    -1.07860
O323        O  0.01726719  0.46522799  0.56245943    -1.08590
C324        C  0.03059222  0.39303317  0.53843704     1.06840
C325        C  0.43925747  0.43462847  0.67459010     1.06780
C326        C  0.05415447  0.45954004  0.62934016     1.09770
C327        C  0.41309998  0.37364225  0.58999888     1.07550
H328        H  0.48961402  0.48244741  0.63972172     0.33100
O329        O  0.48195364  0.48291598  0.61766594    -1.28810
H330        H  0.46171372  0.40738094  0.53721013     0.32780
O331        O  0.46216037  0.42959916  0.54479437    -1.30490
O332        O  0.39730182  0.05196277  0.61383139    -0.86260
O333        O  0.49953022  0.50475210  0.95978752    -0.87760
O334        O  0.01173652  0.04898888  0.63215978    -0.86340
O335        O  0.35884846  0.44691009  0.58557663    -0.86390
O336        O  0.41441193  0.41854475  0.49571176    -0.86100
O337        O  0.06759316  0.01995873  0.54341943    -0.85900
O338        O  0.48247299  0.08835643  0.52772548    -0.86280
O339        O  0.39404036  0.03141424  0.49895796    -0.85740
O340        O  0.02685186  0.07524278  0.55745064    -0.86800
O341        O  0.37274891  0.47785286  0.51093220    -0.85960
O342        O  0.45834647  0.03645358  0.65483986    -0.86360
O343        O  0.05491529  0.48886131  0.49971805    -0.86080
O344        O  0.46779189  0.43178075  0.97325770    -0.85730
O345        O  0.37273374  0.47642804  0.62993774    -0.86140
O346        O  0.40973877  0.07422687  0.56050196    -0.86430
O347        O  0.46855907  0.04854257  0.97344106    -0.87770
Zr348      Zr  0.42827460  0.50170462  0.61879245     2.83100
Zr349      Zr  0.49792034  0.46604873  0.50931559     2.83500
Zr350      Zr  0.01718447  0.01890280  0.58139300     2.84090
Zr351      Zr  0.40856041  0.44902506  0.54641396     2.83360
Zr352      Zr  0.44433414  0.03819408  0.52970359     2.84220
O353        O  0.44404496  0.48476469  0.51018468    -1.08340
O354        O  0.46354610  0.03816353  0.58301034    -1.07850
C355        C  0.39556417  0.07451261  0.59004574     1.06810
C356        C  0.48792271  0.03346695  0.95355057     1.09430
C357        C  0.48790252  0.05053795  0.65505541     1.06990
C358        C  0.35277115  0.45766372  0.61474589     1.07350
C359        C  0.43844297  0.41734972  0.97290919     1.06930
C360        C  0.07461323  0.50783514  0.51508474     1.06480
C361        C  0.01137329  0.09493307  0.53868264     1.06910
C362        C  0.37227430  0.00692081  0.49615748     1.06420
H363        H  0.01263682  0.03382353  0.51396361     0.33100
O364        O  0.49776999  0.01912896  0.52869627    -1.29440
H365        H  0.38604184  0.00989561  0.56637409     0.33120
O366        O  0.40837475  0.50253631  0.56566894    -1.30830
C367        C  0.44720008  0.40425509  0.76270224    -0.21080
C368        C  0.42705273  0.37436533  0.76488246    -0.09130
C369        C  0.40818883  0.36653045  0.73828787     0.29730
C370        C  0.41046311  0.38778006  0.70953656    -0.21080
C371        C  0.43127694  0.41714987  0.70714303    -0.09140
C372        C  0.44949628  0.42542340  0.73395960     0.29740
F373        F  0.47124376  0.45264906  0.73141812    -0.19660
H374        H  0.46227281  0.41049135  0.78281476     0.18100
H375        H  0.39698391  0.38070753  0.68857796     0.18110
F376        F  0.38801711  0.33821708  0.73997421    -0.19650
C377        C  0.41591533  0.36728867  0.94511294    -0.21080
C378        C  0.43288348  0.39891717  0.94319963    -0.09130
C379        C  0.44768850  0.41227131  0.91242679     0.29730
C380        C  0.44630892  0.39427354  0.88443229    -0.21080
C381        C  0.42973561  0.36258305  0.88597384    -0.09140
C382        C  0.41450872  0.34902966  0.91664454     0.29740
F383        F  0.39810418  0.31852582  0.91898830    -0.19660
H384        H  0.40463566  0.35642979  0.96868461     0.18100
H385        H  0.45863405  0.40519512  0.86131531     0.18110
F386        F  0.46375290  0.44295083  0.90935561    -0.19650
C387        C  0.48341786  0.07440773  0.74367376    -0.21080
C388        C  0.00284479  0.10460450  0.74162009    -0.09130
C389        C  0.01840154  0.11686492  0.71069453     0.29730
C390        C  0.01443977  0.09888610  0.68239858    -0.21080
C391        C  0.49444703  0.06890478  0.68464380    -0.09140
C392        C  0.47926393  0.05673970  0.71571676     0.29740
F393        F  0.46057590  0.02741748  0.71924218    -0.19660
H394        H  0.47100099  0.06453423  0.76714509     0.18100
H395        H  0.02632493  0.10869591  0.65869071     0.18110
F396        F  0.03764608  0.14580791  0.70796787    -0.19650
C397        C  0.99236555  0.06087210  0.86286352    -0.21080
C398        C  0.00698091  0.09352862  0.86293248    -0.09130
C399        C  0.01865356  0.10442285  0.89262453     0.29730
C400        C  0.51380914  0.08383055  0.92178814    -0.21080
C401        C  0.49804149  0.05185513  0.92172307    -0.09140
C402        C  0.48815253  0.04012884  0.89192484     0.29740
F403        F  0.47212439  0.00967682  0.89140516    -0.19660
H404        H  0.98254869  0.05184683  0.84065015     0.18100
H405        H  0.52160475  0.09315863  0.94474804     0.18110
F406        F  0.03424923  0.13505932  0.89364409    -0.19650
C407        C  0.99577683  0.22487566  0.82903414    -0.21080
C408        C  0.48019444  0.20242816  0.80886785    -0.09130
C409        C  0.45198428  0.21193569  0.79309956     0.29730
C410        C  0.43988007  0.24325025  0.79736799    -0.21080
C411        C  0.45540341  0.26567769  0.81758634    -0.09140
C412        C  0.48367732  0.25620858  0.83329288     0.29740
F413        F  0.00029286  0.27760291  0.85188455    -0.19660
H414        H  0.01762225  0.21820280  0.84129198     0.18100
H415        H  0.41799914  0.24987881  0.78515064     0.18110
F416        F  0.43535877  0.19054428  0.77451660    -0.19650
C417        C  0.13925133  0.04218913  0.94844865    -0.21080
C418        C  0.16660450  0.02410068  0.95598882    -0.09130
C419        C  0.16429256  0.50293986  0.98520248     0.29730
C420        C  0.13484272  0.49946200  0.00590602    -0.21080
C421        C  0.10732437  0.01676232  0.99766800    -0.09140
C422        C  0.10976655  0.03847192  0.96904850     0.29740
F423        F  0.08309357  0.05493872  0.96032177    -0.19660
H424        H  0.14044708  0.05848057  0.92609251     0.18100
H425        H  0.13288810  0.48188100  0.02735199     0.18110
F426        F  0.18958640  0.48378764  0.99247155    -0.19650
C427        C  0.29646092  0.98854807  0.94812087    -0.21080
C428        C  0.28849530  0.02036329  0.93742975    -0.09130
C429        C  0.30898762  0.04804705  0.94445938     0.29730
C430        C  0.33686919  0.04373216  0.96273771    -0.21080
C431        C  0.34429945  0.01176351  0.97463624    -0.09140
C432        C  0.32386632  0.48410178  0.96651244     0.29740
F433        F  0.32977794  0.45253049  0.97670322    -0.19660
H434        H  0.28062813  0.46703527  0.94312295     0.18100
H435        H  0.35202566  0.06544111  0.96836910     0.18110
F436        F  0.30160701  0.07915282  0.93426838    -0.19650
C437        C  0.08042058  0.43767535  0.67995394    -0.21080
C438        C  0.08339981  0.45391775  0.64807668    -0.09130
C439        C  0.11463804  0.46782935  0.63485513     0.29730
C440        C  0.14216227  0.46620508  0.65333136    -0.21080
C441        C  0.13950906  0.45036055  0.68530947    -0.09140
C442        C  0.10835488  0.43606749  0.69866829     0.29740
F443        F  0.10506162  0.42034571  0.72940207    -0.19660
H444        H  0.05641057  0.42711964  0.69062444     0.18100
H445        H  0.16579241  0.47765917  0.64257855     0.18110
F446        F  0.11860433  0.48307252  0.60386215    -0.19650
C447        C  0.28993852  0.43297198  0.68624468    -0.21080
C448        C  0.26080932  0.44455980  0.67408000    -0.09130
C449        C  0.26169053  0.45678129  0.64048925     0.29730
C450        C  0.29127325  0.45815296  0.62014490    -0.21080
C451        C  0.32055595  0.44839238  0.63307069    -0.09140
C452        C  0.31963594  0.43521004  0.66608144     0.29740
F453        F  0.34786522  0.42579049  0.67919413    -0.19660
H454        H  0.28998740  0.42314946  0.71171603     0.18100
H455        H  0.29185784  0.46919543  0.59503830     0.18110
F456        F  0.23481929  0.46999702  0.62788649    -0.19650
C457        C  0.19613945  0.00775505  0.78920235    -0.21080
C458        C  0.20674414  0.47639447  0.78176034    -0.09130
C459        C  0.22201425  0.45752975  0.80593557     0.29730
C460        C  0.22692918  0.46999321  0.83681071    -0.21080
C461        C  0.21658180  0.00140084  0.84423443    -0.09140
C462        C  0.20103459  0.02023649  0.82020519     0.29740
F463        F  0.19140035  0.05097667  0.82645149    -0.19660
H464        H  0.18470144  0.02282113  0.77073814     0.18100
H465        H  0.23845132  0.45490076  0.85519854     0.18110
F466        F  0.23168467  0.42677297  0.79981105    -0.19650
C467        C  0.37436228  0.16347425  0.58673513    -0.21080
C468        C  0.34101091  0.16151745  0.59967972    -0.09130
C469        C  0.32576771  0.13023584  0.61138328     0.29730
C470        C  0.34388062  0.10162792  0.60991423    -0.21080
C471        C  0.37707474  0.10403645  0.59638638    -0.09140
C472        C  0.39216377  0.13528290  0.58527923     0.29740
F473        F  0.42428422  0.13849183  0.57251537    -0.19660
H474        H  0.38669253  0.18699027  0.57697676     0.18100
H475        H  0.33175045  0.07760275  0.61825183     0.18110
F476        F  0.29365411  0.12735119  0.62423221    -0.19650
C477        C  0.38620266  0.28284130  0.59238488    -0.21080
C478        C  0.35232827  0.28314119  0.60377061    -0.09130
C479        C  0.34045510  0.31276421  0.61502624     0.29730
C480        C  0.36139282  0.34179711  0.61260415    -0.21080
C481        C  0.39460026  0.34170132  0.59958194    -0.09140
C482        C  0.40726089  0.31182639  0.59051677     0.29740
F483        F  0.43906902  0.31126261  0.57725546    -0.19660
H484        H  0.39604717  0.26054266  0.58318793     0.18100
H485        H  0.35133271  0.36479737  0.61975382     0.18110
F486        F  0.30851740  0.31388225  0.62770953    -0.19650
C487        C  0.03957958  0.18570382  0.53469087    -0.21080
C488        C  0.07181914  0.18544121  0.51877989    -0.09130
C489        C  0.08191622  0.15573500  0.50600938     0.29730
C490        C  0.06107642  0.12666653  0.51112296    -0.21080
C491        C  0.02961677  0.12682781  0.52827809    -0.09140
C492        C  0.01857230  0.15670225  0.53922941     0.29740
F493        F  0.48864964  0.15733456  0.55656300    -0.19660
H494        H  0.03119668  0.20797057  0.54529441     0.18100
H495        H  0.06989706  0.10366323  0.50255625     0.18110
F496        F  0.11210077  0.15458174  0.98918073    -0.19650
C497        C  0.09498577  0.33579018  0.00449888    -0.21080
C498        C  0.08598979  0.30660700  0.52461729    -0.09130
C499        C  0.05920283  0.30628701  0.54874694     0.29730
C500        C  0.04151554  0.33437674  0.55250786    -0.21080
C501        C  0.04996178  0.36369074  0.53239130    -0.09140
C502        C  0.07693703  0.36420774  0.50815425     0.29740
F503        F  0.08621641  0.39214865  0.98854943    -0.19660
H504        H  0.11557232  0.33636145  0.98573635     0.18100
H505        H  0.02085500  0.33299194  0.57127567     0.18110
F506        F  0.05017227  0.27862789  0.56892117    -0.19650
C507        C  0.24162308  0.25364800  0.54300910    -0.21080
C508        C  0.24578821  0.22949680  0.56866056    -0.09130
C509        C  0.21786256  0.20908177  0.58183088     0.29730
C510        C  0.18660880  0.21300779  0.56979024    -0.21080
C511        C  0.18236311  0.23727483  0.54429811    -0.09140
C512        C  0.21032103  0.25754932  0.53092552     0.29740
F513        F  0.20756909  0.28064281  0.50568857    -0.19660
H514        H  0.26275637  0.26941193  0.53207044     0.18100
H515        H  0.16546632  0.19741192  0.58097594     0.18110
F516        F  0.22046928  0.18612995  0.60722951    -0.19650
C517        C  0.10286852  0.77556766  0.52025339     0.03350
C518        C  0.13578711  0.77266164  0.02865835    -0.12800
C519        C  0.14873059  0.74111484  0.03210318     0.00850
C520        C  0.12814086  0.71270427  0.02703789    -0.11320
C521        C  0.09526119  0.71542242  0.51834557     0.03340
C522        C  0.08340930  0.74707167  0.51388100    -0.10750
H523        H  0.15034260  0.79455745  0.03486292     0.08940
H524        H  0.13731324  0.68834374  0.03143136     0.06470
H525        H  0.05795310  0.74953637  0.50769450     0.06310
C526        C  0.32341719  0.69274032  0.10013719     0.03350
C527        C  0.29199341  0.69519962  0.08755694    -0.12800
C528        C  0.27891021  0.72650615  0.08228132     0.00830
C529        C  0.29827316  0.75530351  0.08870413    -0.11320
C530        C  0.32957112  0.75307136  0.10154917     0.03340
C531        C  0.34094190  0.72167074  0.10866039    -0.10750
H532        H  0.27859508  0.67312147  0.08016357     0.08940
H533        H  0.28927676  0.77948417  0.08285826     0.06470
H534        H  0.36479519  0.71981837  0.11908694     0.06310
C535        C  0.17019502  0.94866112  0.20308971     0.03350
C536        C  0.17243495  0.96043593  0.23489695    -0.12800
C537        C  0.20360326  0.96401712  0.24831244     0.00850
C538        C  0.23249684  0.95742073  0.22893087    -0.11320
C539        C  0.23044564  0.94625517  0.19686537     0.03340
C540        C  0.19905024  0.93986585  0.18533874    -0.10750
H541        H  0.15032885  0.96762452  0.24871331     0.08940
H542        H  0.25661728  0.96257641  0.23833637     0.06470
H543        H  0.19709191  0.92996988  0.16122173     0.06310
C544        C  0.25652874  0.52385755  0.42259583     0.03350
C545        C  0.22835036  0.52873988  0.44352097    -0.12800
C546        C  0.19639337  0.52515210  0.43217873     0.00850
C547        C  0.19295025  0.51857253  0.39883649    -0.11320
C548        C  0.22099601  0.51345676  0.37759714     0.03340
C549        C  0.25276860  0.51580235  0.38977650    -0.10750
H550        H  0.23121002  0.53330454  0.46930407     0.08940
H551        H  0.16831329  0.51490998  0.39008672     0.06470
H552        H  0.27437665  0.51024562  0.37412702     0.06310
C553        C  0.00598181  0.62225008  0.27241542     0.03350
C554        C  0.99668160  0.65503679  0.27461203    -0.12800
C555        C  0.99259325  0.66873379  0.30574103     0.00850
C556        C  0.99780320  0.64909569  0.33455690    -0.11320
C557        C  0.00738041  0.61634293  0.33260914     0.03340
C558        C  0.01271142  0.60383011  0.30131431    -0.10750
H559        H  0.99114887  0.66925285  0.25238353     0.08940
H560        H  0.99219369  0.65869562  0.35857602     0.06470
H561        H  0.02005262  0.57861912  0.29948000     0.06310
C562        C  0.42847054  0.84525707  0.35475239     0.03350
C563        C  0.43844986  0.81268274  0.35227641    -0.12800
C564        C  0.44270720  0.79922228  0.32097632     0.00850
C565        C  0.43682790  0.81882655  0.29230676    -0.11320
C566        C  0.42713032  0.85139399  0.29469076     0.03340
C567        C  0.42191032  0.86381654  0.32588188    -0.10750
H568        H  0.44408831  0.79837411  0.37440489     0.08940
H569        H  0.44176182  0.80947792  0.26803440     0.06470
H570        H  0.41449107  0.88904197  0.32748517     0.06310
O571        O  0.02840379  0.91538168  0.01452645    -0.86270
O572        O  0.42727041  0.96313873  0.16833355    -0.86430
O573        O  0.03175599  0.93543661  0.12783782    -0.88100
O574        O  0.44210588  0.87985326  0.10086904    -0.86860
O575        O  0.39797998  0.89342689  0.07109569    -0.86450
O576        O  0.05362469  0.98892295  0.11522297    -0.87820
O577        O  0.45803275  0.91931150  0.15446705    -0.86300
O578        O  0.01637359  0.89357598  0.06793116    -0.85880
Zr579      Zr  0.48113175  0.92945086  0.09806366     2.84310
O580        O  0.42803159  0.94875965  0.09910736    -1.07860
O581        O  0.01726736  0.96522800  0.06245940    -1.08590
C582        C  0.03059205  0.89303313  0.03843698     1.06840
C583        C  0.43925742  0.93462845  0.17459006     1.06780
C584        C  0.05415441  0.95954012  0.12934024     1.09770
C585        C  0.41309993  0.87364229  0.08999896     1.07550
H586        H  0.48961425  0.98244736  0.13972259     0.33100
O587        O  0.48195381  0.98291593  0.11766660    -1.28810
H588        H  0.46171364  0.90737973  0.03720976     0.32780
O589        O  0.46216030  0.92959823  0.04479409    -1.30490
O590        O  0.39730191  0.55196290  0.11383149    -0.86260
O591        O  0.49953034  0.00475219  0.45978745    -0.87760
O592        O  0.01173659  0.54898881  0.13215980    -0.86340
O593        O  0.35884849  0.94690998  0.08557668    -0.86390
O594        O  0.41441187  0.91854484  0.99571169    -0.86100
O595        O  0.06759322  0.51995884  0.04341936    -0.85900
O596        O  0.48247289  0.58835639  0.02772559    -0.86280
O597        O  0.39404037  0.53141420  0.99895788    -0.85740
O598        O  0.02685196  0.57524282  0.05745051    -0.86800
O599        O  0.37274896  0.97785282  0.01093210    -0.85960
O600        O  0.45834638  0.53645371  0.15483979    -0.86360
O601        O  0.05491534  0.98886146  0.99971796    -0.86080
O602        O  0.46779196  0.93178069  0.47325776    -0.85730
O603        O  0.37273375  0.97642796  0.12993779    -0.86140
O604        O  0.40973884  0.57422697  0.06050204    -0.86430
O605        O  0.46855917  0.54854263  0.47344102    -0.87770
Zr606      Zr  0.42827455  0.00170463  0.11879244     2.83100
Zr607      Zr  0.49792029  0.96604865  0.00931564     2.83500
Zr608      Zr  0.01718455  0.51890289  0.08139290     2.84090
Zr609      Zr  0.40856039  0.94902505  0.04641396     2.83360
Zr610      Zr  0.44433400  0.53819401  0.02970369     2.84220
O611        O  0.44404498  0.98476467  0.01018483    -1.08340
O612        O  0.46354605  0.53816336  0.08301033    -1.07850
C613        C  0.39556427  0.57451273  0.09004583     1.06810
C614        C  0.48792279  0.53346699  0.45355053     1.09430
C615        C  0.48790245  0.55053804  0.15505538     1.06990
C616        C  0.35277118  0.95766363  0.11474594     1.07350
C617        C  0.43844305  0.91734961  0.47290928     1.06930
C618        C  0.07461328  0.00783526  0.01508469     1.06480
C619        C  0.01137338  0.59493312  0.03868253     1.06910
C620        C  0.37227436  0.50692076  0.99615736     1.06420
H621        H  0.01263643  0.53382313  0.01396403     0.33100
O622        O  0.49777020  0.51912918  0.02869604    -1.29440
H623        H  0.38603985  0.50989617  0.06637418     0.33120
O624        O  0.40837376  0.00253659  0.06566899    -1.30830
C625        C  0.44720012  0.90425508  0.26270220    -0.21080
C626        C  0.42705275  0.87436533  0.26488245    -0.09130
C627        C  0.40818882  0.86653047  0.23828787     0.29730
C628        C  0.41046309  0.88778006  0.20953656    -0.21080
C629        C  0.43127693  0.91714986  0.20714301    -0.09140
C630        C  0.44949631  0.92542338  0.23395956     0.29740
F631        F  0.47124381  0.95264903  0.23141807    -0.19660
H632        H  0.46227287  0.91049133  0.28281471     0.18100
H633        H  0.39698387  0.88070754  0.18857797     0.18110
F634        F  0.38801708  0.83821711  0.23997423    -0.19650
C635        C  0.41591534  0.86728861  0.44511297    -0.21080
C636        C  0.43288353  0.89891710  0.44319969    -0.09130
C637        C  0.44768849  0.91227129  0.41242684     0.29730
C638        C  0.44630888  0.89427355  0.38443231    -0.21080
C639        C  0.42973558  0.86258304  0.38597384    -0.09140
C640        C  0.41450871  0.84902963  0.41664454     0.29740
F641        F  0.39810416  0.81852579  0.41898829    -0.19660
H642        H  0.40463568  0.85642971  0.46868463     0.18100
H643        H  0.45863398  0.90519515  0.36131534     0.18110
F644        F  0.46375286  0.94295082  0.40935566    -0.19650
C645        C  0.48341789  0.57440774  0.24367375    -0.21080
C646        C  0.00284477  0.60460449  0.24162009    -0.09130
C647        C  0.01840152  0.61686490  0.21069453     0.29730
C648        C  0.01443978  0.59888605  0.18239859    -0.21080
C649        C  0.49444699  0.56890484  0.18464377    -0.09140
C650        C  0.47926393  0.55673972  0.21571674     0.29740
F651        F  0.46057591  0.52741749  0.21924215    -0.19660
H652        H  0.47100103  0.56453422  0.26714508     0.18100
H653        H  0.02632495  0.60869585  0.15869072     0.18110
F654        F  0.03764606  0.64580789  0.20796785    -0.19650
C655        C  0.99236554  0.56087208  0.36286355    -0.21080
C656        C  0.00698090  0.59352860  0.36293250    -0.09130
C657        C  0.01865353  0.60442281  0.39262457     0.29730
C658        C  0.51380917  0.58383057  0.42178811    -0.21080
C659        C  0.49804154  0.55185515  0.42172303    -0.09140
C660        C  0.48815254  0.54012886  0.39192482     0.29740
F661        F  0.47212440  0.50967683  0.39140516    -0.19660
H662        H  0.98254870  0.55184681  0.34065018     0.18100
H663        H  0.52160479  0.59315865  0.44474801     0.18110
F664        F  0.03424922  0.63505928  0.39364412    -0.19650
C665        C  0.99577684  0.72487566  0.32903413    -0.21080
C666        C  0.48019444  0.70242816  0.30886786    -0.09130
C667        C  0.45198429  0.71193570  0.29309955     0.29730
C668        C  0.43988009  0.74325026  0.29736798    -0.21080
C669        C  0.45540341  0.76567769  0.31758635    -0.09140
C670        C  0.48367731  0.75620858  0.33329290     0.29740
F671        F  0.00029287  0.77760291  0.35188454    -0.19660
H672        H  0.01762226  0.71820279  0.34129197     0.18100
H673        H  0.41799916  0.74987882  0.28515061     0.18110
F674        F  0.43535880  0.69054429  0.27451658    -0.19650
C675        C  0.13925132  0.54218912  0.44844869    -0.21080
C676        C  0.16660449  0.52410065  0.45598882    -0.09130
C677        C  0.16429255  0.00293985  0.48520248     0.29730
C678        C  0.13484271  0.99946197  0.50590603    -0.21080
C679        C  0.10732434  0.51676223  0.49766802    -0.09140
C680        C  0.10976653  0.53847189  0.46904855     0.29740
F681        F  0.08309357  0.55493873  0.46032184    -0.19660
H682        H  0.14044707  0.55848059  0.42609257     0.18100
H683        H  0.13288811  0.98188096  0.52735199     0.18110
F684        F  0.18958641  0.98378764  0.49247152    -0.19650
C685        C  0.29646095  0.48854806  0.44812084    -0.21080
C686        C  0.28849531  0.52036327  0.43742972    -0.09130
C687        C  0.30898762  0.54804704  0.44445936     0.29730
C688        C  0.33686918  0.54373217  0.46273772    -0.21080
C689        C  0.34429943  0.51176353  0.47463628    -0.09140
C690        C  0.32386630  0.98410180  0.46651252     0.29740
F691        F  0.32977790  0.95253052  0.47670333    -0.19660
H692        H  0.28062812  0.96703527  0.44312300     0.18100
H693        H  0.35202564  0.56544112  0.46836911     0.18110
F694        F  0.30160701  0.57915281  0.43426836    -0.19650
C695        C  0.08042057  0.93767537  0.17995395    -0.21080
C696        C  0.08339977  0.95391780  0.14807672    -0.09130
C697        C  0.11463800  0.96782936  0.13485512     0.29730
C698        C  0.14216225  0.96620506  0.15333133    -0.21080
C699        C  0.13950906  0.95036054  0.18530944    -0.09140
C700        C  0.10835488  0.93606748  0.19866827     0.29740
F701        F  0.10506163  0.92034569  0.22940205    -0.19660
H702        H  0.05641056  0.92711966  0.19062447     0.18100
H703        H  0.16579239  0.97765913  0.14257849     0.18110
F704        F  0.11860428  0.98307251  0.10386213    -0.19650
C705        C  0.28993851  0.93297198  0.18624469    -0.21080
C706        C  0.26080933  0.94455981  0.17407999    -0.09130
C707        C  0.26169055  0.95678129  0.14048924     0.29730
C708        C  0.29127328  0.95815293  0.12014491    -0.21080
C709        C  0.32055596  0.94839233  0.13307072    -0.09140
C710        C  0.31963594  0.93521002  0.16608147     0.29740
F711        F  0.34786522  0.92579048  0.17919418    -0.19660
H712        H  0.28998738  0.92314948  0.21171605     0.18100
H713        H  0.29185789  0.96919540  0.09503829     0.18110
F714        F  0.23481933  0.96999702  0.12788646    -0.19650
C715        C  0.19613948  0.50775507  0.28920230    -0.21080
C716        C  0.20674411  0.97639448  0.28176031    -0.09130
C717        C  0.22201415  0.95752971  0.30593557     0.29730
C718        C  0.22692909  0.96999317  0.33681071    -0.21080
C719        C  0.21658179  0.50140083  0.34423441    -0.09140
C720        C  0.20103463  0.52023651  0.32020515     0.29740
F721        F  0.19140045  0.55097671  0.32645143    -0.19660
H722        H  0.18470152  0.52282118  0.27073808     0.18100
H723        H  0.23845117  0.95490069  0.35519856     0.18110
F724        F  0.23168450  0.92677291  0.29981107    -0.19650
C725        C  0.37436231  0.66347433  0.08673512    -0.21080
C726        C  0.34101093  0.66151750  0.09967971    -0.09130
C727        C  0.32576776  0.63023589  0.11138329     0.29730
C728        C  0.34388069  0.60162799  0.10991428    -0.21080
C729        C  0.37707482  0.60403655  0.09638646    -0.09140
C730        C  0.39216382  0.63528300  0.08527926     0.29740
F731        F  0.42428426  0.63849193  0.07251538    -0.19660
H732        H  0.38669254  0.68699035  0.07697672     0.18100
H733        H  0.33175054  0.57760281  0.11825188     0.18110
F734        F  0.29365416  0.62735123  0.12423221    -0.19650
C735        C  0.38620266  0.78284135  0.09238487    -0.21080
C736        C  0.35232826  0.78314122  0.10377060    -0.09130
C737        C  0.34045508  0.81276423  0.11502624     0.29730
C738        C  0.36139279  0.84179712  0.11260418    -0.21080
C739        C  0.39460023  0.84170135  0.09958198    -0.09140
C740        C  0.40726088  0.81182643  0.09051678     0.29740
F741        F  0.43906901  0.81126267  0.07725547    -0.19660
H742        H  0.39604717  0.76054271  0.08318791     0.18100
H743        H  0.35133267  0.86479738  0.11975386     0.18110
F744        F  0.30851738  0.81388226  0.12770952    -0.19650
C745        C  0.03957959  0.68570382  0.03469088    -0.21080
C746        C  0.07181915  0.68544122  0.01877990    -0.09130
C747        C  0.08191625  0.65573503  0.00600936     0.29730
C748        C  0.06107647  0.62666657  0.01112291    -0.21080
C749        C  0.02961682  0.62682785  0.02827803    -0.09140
C750        C  0.01857232  0.65670226  0.03922938     0.29740
F751        F  0.48864964  0.65733459  0.05656303    -0.19660
H752        H  0.03119668  0.70797057  0.04529444     0.18100
H753        H  0.06989711  0.60366328  0.00255619     0.18110
F754        F  0.11210074  0.65458171  0.48918074    -0.19650
C755        C  0.09498584  0.83579018  0.50449886    -0.21080
C756        C  0.08598974  0.80660700  0.02461733    -0.09130
C757        C  0.05920276  0.80628700  0.04874695     0.29730
C758        C  0.04151544  0.83437671  0.05250784    -0.21080
C759        C  0.04996165  0.86369070  0.03239126    -0.09140
C760        C  0.07693694  0.86420772  0.00815426     0.29740
F761        F  0.08621651  0.89214867  0.48854944    -0.19660
H762        H  0.11557237  0.83636144  0.48573631     0.18100
H763        H  0.02085489  0.83299190  0.07127564     0.18110
F764        F  0.05017221  0.77862788  0.06892118    -0.19650
C765        C  0.24162307  0.75364801  0.04300909    -0.21080
C766        C  0.24578821  0.72949680  0.06866054    -0.09130
C767        C  0.21786257  0.70908178  0.08183088     0.29730
C768        C  0.18660880  0.71300779  0.06979025    -0.21080
C769        C  0.18236310  0.73727484  0.04429813    -0.09140
C770        C  0.21032101  0.75754932  0.03092553     0.29740
F771        F  0.20756906  0.78064281  0.00568857    -0.19660
H772        H  0.26275636  0.76941193  0.03207042     0.18100
H773        H  0.16546633  0.69741192  0.08097596     0.18110
F774        F  0.22046930  0.68612996  0.10722951    -0.19650
C775        C  0.10286849  0.77556765  0.02025343     0.03350
C776        C  0.13578714  0.77266166  0.52865831    -0.12800
C777        C  0.14873061  0.74111485  0.53210315     0.00850
C778        C  0.12814088  0.71270428  0.52703786    -0.11320
C779        C  0.09526118  0.71542242  0.01834559     0.03340
C780        C  0.08340928  0.74707165  0.01388103    -0.10750
H781        H  0.15034263  0.79455747  0.53486289     0.08940
H782        H  0.13731326  0.68834375  0.53143133     0.06470
H783        H  0.05795307  0.74953635  0.00769452     0.06310
C784        C  0.32341718  0.69274029  0.60013721     0.03350
C785        C  0.29199340  0.69519960  0.58755696    -0.12800
C786        C  0.27891022  0.72650614  0.58228135     0.00830
C787        C  0.29827318  0.75530350  0.58870416    -0.11320
C788        C  0.32957113  0.75307133  0.60154920     0.03340
C789        C  0.34094191  0.72167070  0.60866040    -0.10750
H790        H  0.27859506  0.67312146  0.58016360     0.08940
H791        H  0.28927678  0.77948416  0.58285829     0.06470
H792        H  0.36479520  0.71981832  0.61908694     0.06310
C793        C  0.17019502  0.94866112  0.70308972     0.03350
C794        C  0.17243495  0.96043595  0.73489695    -0.12800
C795        C  0.20360325  0.96401713  0.74831245     0.00850
C796        C  0.23249684  0.95742073  0.72893088    -0.11320
C797        C  0.23044564  0.94625517  0.69686538     0.03340
C798        C  0.19905024  0.93986585  0.68533876    -0.10750
H799        H  0.15032885  0.96762454  0.74871332     0.08940
H800        H  0.25661727  0.96257641  0.73833639     0.06470
H801        H  0.19709190  0.92996987  0.66122175     0.06310
C802        C  0.25652873  0.52385758  0.92259589     0.03350
C803        C  0.22835035  0.52873990  0.94352102    -0.12800
C804        C  0.19639337  0.52515210  0.93217876     0.00850
C805        C  0.19295026  0.51857253  0.89883653    -0.11320
C806        C  0.22099602  0.51345677  0.87759718     0.03340
C807        C  0.25276861  0.51580239  0.88977656    -0.10750
H808        H  0.23121000  0.53330455  0.96930413     0.08940
H809        H  0.16831330  0.51490997  0.89008676     0.06470
H810        H  0.27437667  0.51024568  0.87412708     0.06310
C811        C  0.00598183  0.62225009  0.77241541     0.03350
C812        C  0.99668160  0.65503680  0.77461203    -0.12800
C813        C  0.99259324  0.66873380  0.80574102     0.00850
C814        C  0.99780318  0.64909570  0.83455689    -0.11320
C815        C  0.00738041  0.61634295  0.83260912     0.03340
C816        C  0.01271144  0.60383013  0.80131430    -0.10750
H817        H  0.99114887  0.66925286  0.75238352     0.08940
H818        H  0.99219366  0.65869562  0.85857601     0.06470
H819        H  0.02005266  0.57861914  0.79947999     0.06310
C820        C  0.42847054  0.84525706  0.85475239     0.03350
C821        C  0.43844986  0.81268274  0.85227641    -0.12800
C822        C  0.44270720  0.79922228  0.82097633     0.00850
C823        C  0.43682789  0.81882654  0.79230677    -0.11320
C824        C  0.42713030  0.85139398  0.79469077     0.03340
C825        C  0.42191031  0.86381653  0.82588188    -0.10750
H826        H  0.44408832  0.79837411  0.87440490     0.08940
H827        H  0.44176180  0.80947792  0.76803441     0.06470
H828        H  0.41449107  0.88904196  0.82748518     0.06310
O829        O  0.02840385  0.91538169  0.51452648    -0.86270
O830        O  0.42727046  0.96313875  0.66833358    -0.86430
O831        O  0.03175603  0.93543656  0.62783775    -0.88100
O832        O  0.44210592  0.87985324  0.60086900    -0.86860
O833        O  0.39798003  0.89342685  0.57109564    -0.86450
O834        O  0.05362470  0.98892291  0.61522294    -0.87820
O835        O  0.45803280  0.91931152  0.65446708    -0.86300
O836        O  0.01637369  0.89357601  0.56793120    -0.85880
Zr837      Zr  0.48113176  0.92945088  0.59806368     2.84310
O838        O  0.42803151  0.94875956  0.59910747    -1.07860
O839        O  0.01726726  0.96522800  0.56245941    -1.08590
C840        C  0.03059214  0.89303316  0.53843702     1.06840
C841        C  0.43925746  0.93462846  0.67459009     1.06780
C842        C  0.05415443  0.95954008  0.62934020     1.09770
C843        C  0.41309997  0.87364226  0.58999891     1.07550
H844        H  0.48961411  0.98244740  0.63972203     0.33100
O845        O  0.48195371  0.98291596  0.61766617    -1.28810
H846        H  0.46171370  0.90738052  0.53721000     0.32780
O847        O  0.46216035  0.92959884  0.54479428    -1.30490
O848        O  0.39730179  0.55196275  0.61383137    -0.86260
O849        O  0.49953029  0.00475216  0.95978748    -0.87760
O850        O  0.01173651  0.54898890  0.63215977    -0.86340
O851        O  0.35884848  0.94691005  0.58557666    -0.86390
O852        O  0.41441191  0.91854478  0.49571174    -0.86100
O853        O  0.06759315  0.51995867  0.54341946    -0.85900
O854        O  0.48247300  0.58835644  0.52772546    -0.86280
O855        O  0.39404036  0.53141425  0.49895796    -0.85740
O856        O  0.02685183  0.57524275  0.55745070    -0.86800
O857        O  0.37274893  0.97785285  0.51093218    -0.85960
O858        O  0.45834647  0.53645356  0.65483987    -0.86360
O859        O  0.05491530  0.98886139  0.49971800    -0.86080
O860        O  0.46779193  0.93178072  0.97325774    -0.85730
O861        O  0.37273375  0.97642802  0.62993776    -0.86140
O862        O  0.40973874  0.57422685  0.56050194    -0.86430
O863        O  0.46855899  0.54854252  0.97344109    -0.87770
Zr864      Zr  0.42827459  0.00170462  0.61879245     2.83100
Zr865      Zr  0.49792033  0.96604870  0.50931561     2.83500
Zr866      Zr  0.01718444  0.51890275  0.58139304     2.84090
Zr867      Zr  0.40856041  0.94902505  0.54641397     2.83360
Zr868      Zr  0.44433417  0.53819409  0.52970356     2.84220
O869        O  0.44404497  0.98476468  0.51018473    -1.08340
O870        O  0.46354610  0.53816356  0.58301034    -1.07850
C871        C  0.39556414  0.57451258  0.59004572     1.06810
C872        C  0.48792265  0.53346690  0.95355061     1.09430
C873        C  0.48790252  0.55053792  0.65505543     1.06990
C874        C  0.35277117  0.95766369  0.61474591     1.07350
C875        C  0.43844302  0.91734966  0.97290924     1.06930
C876        C  0.07461324  0.00783520  0.51508472     1.06480
C877        C  0.01137326  0.59493305  0.53868269     1.06910
C878        C  0.37227429  0.50692082  0.49615749     1.06420
H879        H  0.01263700  0.53382370  0.51396342     0.33100
O880        O  0.49776994  0.51912891  0.52869633    -1.29440
H881        H  0.38604228  0.50989549  0.56637407     0.33120
O882        O  0.40837442  0.00253641  0.56566896    -1.30830
C883        C  0.44720012  0.90425507  0.76270222    -0.21080
C884        C  0.42705274  0.87436532  0.76488246    -0.09130
C885        C  0.40818881  0.86653047  0.73828788     0.29730
C886        C  0.41046310  0.88778007  0.70953657    -0.21080
C887        C  0.43127695  0.91714987  0.70714303    -0.09140
C888        C  0.44949631  0.92542338  0.73395958     0.29740
F889        F  0.47124382  0.95264902  0.73141809    -0.19660
H890        H  0.46227287  0.91049131  0.78281473     0.18100
H891        H  0.39698387  0.88070756  0.68857797     0.18110
F892        F  0.38801706  0.83821712  0.73997423    -0.19650
C893        C  0.41591533  0.86728864  0.94511296    -0.21080
C894        C  0.43288351  0.89891713  0.94319967    -0.09130
C895        C  0.44768850  0.91227130  0.91242681     0.29730
C896        C  0.44630889  0.89427354  0.88443230    -0.21080
C897        C  0.42973559  0.86258304  0.88597384    -0.09140
C898        C  0.41450870  0.84902965  0.91664454     0.29740
F899        F  0.39810416  0.81852581  0.91898829    -0.19660
H900        H  0.40463567  0.85642975  0.96868462     0.18100
H901        H  0.45863401  0.90519513  0.86131533     0.18110
F902        F  0.46375288  0.94295083  0.90935563    -0.19650
C903        C  0.48341785  0.57440774  0.74367376    -0.21080
C904        C  0.00284480  0.60460449  0.74162009    -0.09130
C905        C  0.01840155  0.61686492  0.71069453     0.29730
C906        C  0.01443977  0.59888611  0.68239858    -0.21080
C907        C  0.49444703  0.56890477  0.68464380    -0.09140
C908        C  0.47926391  0.55673970  0.71571677     0.29740
F909        F  0.46057587  0.52741748  0.71924218    -0.19660
H910        H  0.47100097  0.56453424  0.76714509     0.18100
H911        H  0.02632493  0.60869593  0.65869071     0.18110
F912        F  0.03764609  0.64580791  0.70796788    -0.19650
C913        C  0.99236554  0.56087211  0.86286350    -0.21080
C914        C  0.00698090  0.59352863  0.86293246    -0.09130
C915        C  0.01865355  0.60442287  0.89262451     0.29730
C916        C  0.51380912  0.58383052  0.92178817    -0.21080
C917        C  0.49804146  0.55185510  0.92172310    -0.09140
C918        C  0.48815252  0.54012883  0.89192486     0.29740
F919        F  0.47212438  0.50967680  0.89140516    -0.19660
H920        H  0.98254867  0.55184684  0.84065014     0.18100
H921        H  0.52160472  0.59315861  0.94474807     0.18110
F922        F  0.03424921  0.63505935  0.89364407    -0.19650
C923        C  0.99577682  0.72487566  0.82903414    -0.21080
C924        C  0.48019444  0.70242816  0.80886785    -0.09130
C925        C  0.45198428  0.71193569  0.79309956     0.29730
C926        C  0.43988007  0.74325025  0.79736799    -0.21080
C927        C  0.45540341  0.76567769  0.81758634    -0.09140
C928        C  0.48367731  0.75620858  0.83329288     0.29740
F929        F  0.00029285  0.77760291  0.85188454    -0.19660
H930        H  0.01762224  0.71820279  0.84129198     0.18100
H931        H  0.41799914  0.74987881  0.78515063     0.18110
F932        F  0.43535877  0.69054427  0.77451660    -0.19650
C933        C  0.13925134  0.54218913  0.94844864    -0.21080
C934        C  0.16660451  0.52410068  0.95598883    -0.09130
C935        C  0.16429257  0.00293986  0.98520248     0.29730
C936        C  0.13484273  0.99946199  0.00590602    -0.21080
C937        C  0.10732439  0.51676235  0.99766798    -0.09140
C938        C  0.10976656  0.53847194  0.96904848     0.29740
F939        F  0.08309357  0.55493872  0.96032174    -0.19660
H940        H  0.14044710  0.55848056  0.92609249     0.18100
H941        H  0.13288812  0.98188098  0.02735199     0.18110
F942        F  0.18958642  0.98378765  0.99247153    -0.19650
C943        C  0.29646089  0.48854807  0.94812091    -0.21080
C944        C  0.28849529  0.52036329  0.93742978    -0.09130
C945        C  0.30898763  0.54804705  0.94445938     0.29730
C946        C  0.33686921  0.54373215  0.96273769    -0.21080
C947        C  0.34429946  0.51176349  0.97463621    -0.09140
C948        C  0.32386634  0.98410179  0.96651243     0.29740
F949        F  0.32977798  0.95253051  0.97670319    -0.19660
H950        H  0.28062818  0.96703526  0.94312288     0.18100
H951        H  0.35202570  0.56544109  0.96836906     0.18110
F952        F  0.30160704  0.57915282  0.93426838    -0.19650
C953        C  0.08042057  0.93767536  0.67995394    -0.21080
C954        C  0.08339979  0.95391777  0.64807670    -0.09130
C955        C  0.11463801  0.96782934  0.63485512     0.29730
C956        C  0.14216226  0.96620506  0.65333133    -0.21080
C957        C  0.13950906  0.95036055  0.68530945    -0.09140
C958        C  0.10835487  0.93606749  0.69866828     0.29740
F959        F  0.10506162  0.92034572  0.72940206    -0.19660
H960        H  0.05641056  0.92711966  0.69062446     0.18100
H961        H  0.16579240  0.97765914  0.64257850     0.18110
F962        F  0.11860430  0.98307250  0.60386212    -0.19650
C963        C  0.28993852  0.93297200  0.68624469    -0.21080
C964        C  0.26080933  0.94455982  0.67408000    -0.09130
C965        C  0.26169054  0.95678129  0.64048924     0.29730
C966        C  0.29127326  0.95815294  0.62014491    -0.21080
C967        C  0.32055596  0.94839237  0.63307071    -0.09140
C968        C  0.31963595  0.93521006  0.66608147     0.29740
F969        F  0.34786523  0.92579052  0.67919417    -0.19660
H970        H  0.28998739  0.92314950  0.71171605     0.18100
H971        H  0.29185787  0.96919540  0.59503829     0.18110
F972        F  0.23481931  0.96999701  0.62788647    -0.19650
C973        C  0.19613928  0.50775494  0.78920243    -0.21080
C974        C  0.20674411  0.97639449  0.78176032    -0.09130
C975        C  0.22201403  0.95752967  0.80593561     0.29730
C976        C  0.22692897  0.96999312  0.83681075    -0.21080
C977        C  0.21658182  0.50140084  0.84423445    -0.09140
C978        C  0.20103442  0.52023639  0.82020528     0.29740
F979        F  0.19139999  0.55097649  0.82645163    -0.19660
H980        H  0.18470113  0.52282095  0.77073828     0.18100
H981        H  0.23845096  0.95490060  0.85519864     0.18110
F982        F  0.23168427  0.92677282  0.79981115    -0.19650
C983        C  0.37436228  0.66347424  0.58673512    -0.21080
C984        C  0.34101091  0.66151745  0.59967972    -0.09130
C985        C  0.32576771  0.63023584  0.61138329     0.29730
C986        C  0.34388060  0.60162792  0.60991423    -0.21080
C987        C  0.37707472  0.60403643  0.59638637    -0.09140
C988        C  0.39216375  0.63528288  0.58527921     0.29740
F989        F  0.42428420  0.63849180  0.57251535    -0.19660
H990        H  0.38669254  0.68699026  0.57697676     0.18100
H991        H  0.33175043  0.57760275  0.61825184     0.18110
F992        F  0.29365411  0.62735121  0.62423223    -0.19650
C993        C  0.38620268  0.78284131  0.59238489    -0.21080
C994        C  0.35232828  0.78314119  0.60377062    -0.09130
C995        C  0.34045511  0.81276421  0.61502626     0.29730
C996        C  0.36139283  0.84179710  0.61260418    -0.21080
C997        C  0.39460026  0.84170132  0.59958196    -0.09140
C998        C  0.40726090  0.81182640  0.59051678     0.29740
F999        F  0.43906903  0.81126263  0.57725546    -0.19660
H1000       H  0.39604719  0.76054267  0.58318793     0.18100
H1001       H  0.35133271  0.86479737  0.61975385     0.18110
F1002       F  0.30851741  0.81388224  0.62770955    -0.19650
C1003       C  0.03957959  0.68570382  0.53469087    -0.21080
C1004       C  0.07181914  0.68544121  0.51877989    -0.09130
C1005       C  0.08191622  0.65573499  0.50600940     0.29730
C1006       C  0.06107642  0.62666651  0.51112299    -0.21080
C1007       C  0.02961676  0.62682780  0.52827812    -0.09140
C1008       C  0.01857230  0.65670225  0.53922941     0.29740
F1009       F  0.48864964  0.65733455  0.55656301    -0.19660
H1010       H  0.03119668  0.70797057  0.54529440     0.18100
H1011       H  0.06989706  0.60366322  0.50255630     0.18110
F1012       F  0.11210077  0.65458175  0.98918072    -0.19650
C1013       C  0.09498580  0.83579016  0.00449889    -0.21080
C1014       C  0.08598978  0.80660702  0.52461730    -0.09130
C1015       C  0.05920282  0.80628702  0.54874695     0.29730
C1016       C  0.04151552  0.83437674  0.55250785    -0.21080
C1017       C  0.04996173  0.86369073  0.53239129    -0.09140
C1018       C  0.07693699  0.86420775  0.50815425     0.29740
F1019       F  0.08621648  0.89214864  0.98854945    -0.19660
H1020       H  0.11557234  0.83636142  0.98573635     0.18100
H1021       H  0.02085498  0.83299193  0.57127566     0.18110
F1022       F  0.05017228  0.77862790  0.56892118    -0.19650
C1023       C  0.24162309  0.75364802  0.54300911    -0.21080
C1024       C  0.24578822  0.72949681  0.56866057    -0.09130
C1025       C  0.21786257  0.70908179  0.58183089     0.29730
C1026       C  0.18660881  0.71300781  0.56979025    -0.21080
C1027       C  0.18236312  0.73727485  0.54429812    -0.09140
C1028       C  0.21032104  0.75754934  0.53092553     0.29740
F1029       F  0.20756911  0.78064283  0.50568858    -0.19660
H1030       H  0.26275638  0.76941194  0.53207045     0.18100
H1031       H  0.16546633  0.69741194  0.58097595     0.18110
F1032       F  0.22046928  0.68612997  0.60722952    -0.19650
C1033       C  0.60286850  0.27556766  0.52025342     0.03350
C1034       C  0.63578713  0.27266164  0.02865831    -0.12800
C1035       C  0.64873059  0.24111484  0.03210315     0.00850
C1036       C  0.62814086  0.21270428  0.02703786    -0.11320
C1037       C  0.59526119  0.21542242  0.51834559     0.03340
C1038       C  0.58340929  0.24707166  0.51388103    -0.10750
H1039       H  0.65034262  0.29455745  0.03486289     0.08940
H1040       H  0.63731324  0.18834374  0.03143133     0.06470
H1041       H  0.55795308  0.24953635  0.50769452     0.06310
C1042       C  0.82341717  0.19274028  0.10013721     0.03350
C1043       C  0.79199338  0.19519959  0.08755696    -0.12800
C1044       C  0.77891020  0.22650612  0.08228134     0.00830
C1045       C  0.79827315  0.25530349  0.08870416    -0.11320
C1046       C  0.82957111  0.25307133  0.10154920     0.03340
C1047       C  0.84094188  0.22167070  0.10866041    -0.10750
H1048       H  0.77859504  0.17312145  0.08016359     0.08940
H1049       H  0.78927676  0.27948415  0.08285829     0.06470
H1050       H  0.86479517  0.21981832  0.11908695     0.06310
C1051       C  0.67019501  0.44866112  0.20308975     0.03350
C1052       C  0.67243496  0.46043594  0.23489698    -0.12800
C1053       C  0.70360326  0.46401712  0.24831247     0.00850
C1054       C  0.73249684  0.45742072  0.22893089    -0.11320
C1055       C  0.73044563  0.44625516  0.19686539     0.03340
C1056       C  0.69905023  0.43986583  0.18533878    -0.10750
H1057       H  0.65032886  0.46762454  0.24871335     0.08940
H1058       H  0.75661728  0.46257640  0.23833639     0.06470
H1059       H  0.69709188  0.42996986  0.16122178     0.06310
C1060       C  0.75652873  0.02385755  0.42259586     0.03350
C1061       C  0.72835035  0.02873987  0.44352100    -0.12800
C1062       C  0.69639337  0.02515208  0.43217875     0.00850
C1063       C  0.69295025  0.01857251  0.39883651    -0.11320
C1064       C  0.72099602  0.01345675  0.37759716     0.03340
C1065       C  0.75276860  0.01580235  0.38977653    -0.10750
H1066       H  0.73121001  0.03330452  0.46930410     0.08940
H1067       H  0.66831329  0.01490996  0.39008674     0.06470
H1068       H  0.77437666  0.01024564  0.37412705     0.06310
C1069       C  0.50598182  0.12225009  0.27241542     0.03350
C1070       C  0.49668160  0.15503680  0.27461203    -0.12800
C1071       C  0.49259324  0.16873380  0.30574102     0.00850
C1072       C  0.49780318  0.14909570  0.33455689    -0.11320
C1073       C  0.50738041  0.11634295  0.33260913     0.03340
C1074       C  0.51271143  0.10383012  0.30131431    -0.10750
H1075       H  0.49114887  0.16925286  0.25238353     0.08940
H1076       H  0.49219367  0.15869562  0.35857602     0.06470
H1077       H  0.52005263  0.07861914  0.29947999     0.06310
C1078       C  0.92847055  0.34525706  0.35475240     0.03350
C1079       C  0.93844987  0.31268274  0.35227642    -0.12800
C1080       C  0.94270720  0.29922228  0.32097633     0.00850
C1081       C  0.93682789  0.31882654  0.29230677    -0.11320
C1082       C  0.92713030  0.35139398  0.29469077     0.03340
C1083       C  0.92191031  0.36381653  0.32588189    -0.10750
H1084       H  0.94408834  0.29837411  0.37440490     0.08940
H1085       H  0.94176180  0.30947791  0.26803441     0.06470
H1086       H  0.91449106  0.38904195  0.32748518     0.06310
O1087       O  0.52840389  0.41538169  0.01452650    -0.86270
O1088       O  0.92727052  0.46313878  0.16833362    -0.86430
O1089       O  0.53175606  0.43543653  0.12783771    -0.88100
O1090       O  0.94210595  0.37985323  0.10086892    -0.86860
O1091       O  0.89798007  0.39342683  0.07109555    -0.86450
O1092       O  0.55362472  0.48892290  0.11522293    -0.87820
O1093       O  0.95803284  0.41931155  0.15446711    -0.86300
O1094       O  0.51637376  0.39357603  0.06793122    -0.85880
Zr1095     Zr  0.98113176  0.42945090  0.09806369     2.84310
O1096       O  0.92803138  0.44875943  0.09910760    -1.07860
O1097       O  0.51726721  0.46522800  0.06245943    -1.08590
C1098       C  0.53059220  0.39303318  0.03843704     1.06840
C1099       C  0.93925750  0.43462849  0.17459012     1.06780
C1100       C  0.55415445  0.45954005  0.12934017     1.09770
C1101       C  0.91310000  0.37364224  0.08999883     1.07550
H1102       H  0.98961388  0.48244745  0.13972123     0.33100
O1103       O  0.98195354  0.48291601  0.11766557    -1.28810
H1104       H  0.96171376  0.40738162  0.03721033     0.32780
O1105       O  0.96216040  0.42959969  0.04479453    -1.30490
O1106       O  0.89730182  0.05196278  0.11383139    -0.86260
O1107       O  0.99953021  0.50475208  0.45978753    -0.87760
O1108       O  0.51173653  0.04898887  0.13215978    -0.86340
O1109       O  0.85884844  0.44691016  0.08557660    -0.86390
O1110       O  0.91441197  0.41854470  0.99571180    -0.86100
O1111       O  0.56759317  0.01995875  0.04341942    -0.85900
O1112       O  0.98247299  0.08835643  0.02772548    -0.86280
O1113       O  0.89404036  0.03141424  0.99895794    -0.85740
O1114       O  0.52685187  0.07524279  0.05745062    -0.86800
O1115       O  0.87274887  0.47785290  0.01093227    -0.85960
O1116       O  0.95834645  0.03645360  0.15483985    -0.86360
O1117       O  0.55491529  0.48886134  0.99971804    -0.86080
O1118       O  0.96779188  0.43178075  0.47325770    -0.85730
O1119       O  0.87273373  0.47642809  0.12993772    -0.86140
O1120       O  0.90973877  0.07422688  0.06050195    -0.86430
O1121       O  0.96855904  0.04854255  0.47344107    -0.87770
Zr1122     Zr  0.92827462  0.50170462  0.11879247     2.83100
Zr1123     Zr  0.99792037  0.46604879  0.00931556     2.83500
Zr1124     Zr  0.51718448  0.01890282  0.08139299     2.84090
Zr1125     Zr  0.90856042  0.44902507  0.04641396     2.83360
Zr1126     Zr  0.94433414  0.03819407  0.02970359     2.84220
O1127       O  0.94404495  0.48476471  0.01018459    -1.08340
O1128       O  0.96354609  0.03816352  0.08301034    -1.07850
C1129       C  0.89556418  0.07451262  0.09004573     1.06810
C1130       C  0.98792269  0.03346693  0.45355059     1.09430
C1131       C  0.98790251  0.05053796  0.15505541     1.06990
C1132       C  0.85277114  0.45766378  0.11474586     1.07350
C1133       C  0.93844296  0.41734973  0.47290918     1.06930
C1134       C  0.57461323  0.50783517  0.01508474     1.06480
C1135       C  0.51137330  0.09493308  0.03868263     1.06910
C1136       C  0.87227431  0.00692081  0.99615747     1.06420
H1137       H  0.51263676  0.03382347  0.01396368     0.33100
O1138       O  0.99777001  0.01912898  0.02869626    -1.29440
H1139       H  0.88604171  0.00989565  0.06637409     0.33120
O1140       O  0.90837531  0.50253616  0.06566891    -1.30830
C1141       C  0.94720009  0.40425508  0.26270225    -0.21080
C1142       C  0.92705274  0.37436532  0.26488247    -0.09130
C1143       C  0.90818882  0.36653046  0.23828788     0.29730
C1144       C  0.91046311  0.38778007  0.20953657    -0.21080
C1145       C  0.93127696  0.41714988  0.20714305    -0.09140
C1146       C  0.94949630  0.42542339  0.23395961     0.29740
F1147       F  0.97124379  0.45264904  0.23141814    -0.19660
H1148       H  0.96227283  0.41049132  0.28281477     0.18100
H1149       H  0.89698391  0.38070756  0.18857797     0.18110
F1150       F  0.88801709  0.33821710  0.23997421    -0.19650
C1151       C  0.91591532  0.36728867  0.44511294    -0.21080
C1152       C  0.93288347  0.39891718  0.44319963    -0.09130
C1153       C  0.94768849  0.41227132  0.41242678     0.29730
C1154       C  0.94630891  0.39427354  0.38443229    -0.21080
C1155       C  0.92973561  0.36258304  0.38597384    -0.09140
C1156       C  0.91450872  0.34902966  0.41664454     0.29740
F1157       F  0.89810418  0.31852581  0.41898830    -0.19660
H1158       H  0.90463566  0.35642979  0.46868461     0.18100
H1159       H  0.95863404  0.40519512  0.36131531     0.18110
F1160       F  0.96375289  0.44295084  0.40935560    -0.19650
C1161       C  0.98341785  0.07440774  0.24367376    -0.21080
C1162       C  0.50284478  0.10460450  0.24162009    -0.09130
C1163       C  0.51840154  0.11686491  0.21069454     0.29730
C1164       C  0.51443977  0.09888609  0.18239859    -0.21080
C1165       C  0.99444702  0.06890479  0.18464379    -0.09140
C1166       C  0.97926391  0.05673971  0.21571676     0.29740
F1167       F  0.96057587  0.02741749  0.21924217    -0.19660
H1168       H  0.97100098  0.06453424  0.26714509     0.18100
H1169       H  0.52632494  0.10869589  0.15869072     0.18110
F1170       F  0.53764609  0.14580790  0.20796787    -0.19650
C1171       C  0.49236554  0.06087210  0.36286352    -0.21080
C1172       C  0.50698090  0.09352862  0.36293248    -0.09130
C1173       C  0.51865355  0.10442285  0.39262453     0.29730
C1174       C  0.01380913  0.08383054  0.42178815    -0.21080
C1175       C  0.99804148  0.05185511  0.42172308    -0.09140
C1176       C  0.98815252  0.04012884  0.39192485     0.29740
F1177       F  0.97212438  0.00967681  0.39140517    -0.19660
H1178       H  0.48254868  0.05184683  0.34065016     0.18100
H1179       H  0.02160474  0.09315862  0.44474805     0.18110
F1180       F  0.53424922  0.13505932  0.39364409    -0.19650
C1181       C  0.49577682  0.22487566  0.32903414    -0.21080
C1182       C  0.98019444  0.20242816  0.30886786    -0.09130
C1183       C  0.95198429  0.21193569  0.29309956     0.29730
C1184       C  0.93988008  0.24325025  0.29736799    -0.21080
C1185       C  0.95540341  0.26567769  0.31758635    -0.09140
C1186       C  0.98367732  0.25620858  0.33329289     0.29740
F1187       F  0.50029285  0.27760291  0.35188456    -0.19660
H1188       H  0.51762224  0.21820279  0.34129199     0.18100
H1189       H  0.91799915  0.24987881  0.28515063     0.18110
F1190       F  0.93535878  0.19054428  0.27451659    -0.19650
C1191       C  0.63925135  0.04218913  0.44844867    -0.21080
C1192       C  0.66660451  0.02410065  0.45598882    -0.09130
C1193       C  0.66429256  0.50293982  0.48520247     0.29730
C1194       C  0.63484272  0.49946196  0.50590601    -0.21080
C1195       C  0.60732438  0.01676230  0.49766800    -0.09140
C1196       C  0.60976656  0.03847192  0.46904852     0.29740
F1197       F  0.58309359  0.05493875  0.46032180    -0.19660
H1198       H  0.64044710  0.05848058  0.42609253     0.18100
H1199       H  0.63288810  0.48188094  0.52735197     0.18110
F1200       F  0.68958640  0.48378759  0.49247152    -0.19650
C1201       C  0.79646094  0.98854805  0.44812085    -0.21080
C1202       C  0.78849530  0.02036327  0.43742975    -0.09130
C1203       C  0.80898761  0.04804703  0.44445939     0.29730
C1204       C  0.83686918  0.04373215  0.46273772    -0.21080
C1205       C  0.84429946  0.01176349  0.47463622    -0.09140
C1206       C  0.82386633  0.48410177  0.46651244     0.29740
F1207       F  0.82977794  0.45253048  0.47670323    -0.19660
H1208       H  0.78062812  0.46703526  0.44312296     0.18100
H1209       H  0.85202565  0.06544110  0.46836911     0.18110
F1210       F  0.80160699  0.07915280  0.43426841    -0.19650
C1211       C  0.58042057  0.43767536  0.17995395    -0.21080
C1212       C  0.58339980  0.45391776  0.14807669    -0.09130
C1213       C  0.61463802  0.46782935  0.13485514     0.29730
C1214       C  0.64216226  0.46620508  0.15333137    -0.21080
C1215       C  0.63950905  0.45036056  0.18530948    -0.09140
C1216       C  0.60835486  0.43606750  0.19866830     0.29740
F1217       F  0.60506160  0.42034572  0.22940208    -0.19660
H1218       H  0.55641056  0.42711966  0.19062446     0.18100
H1219       H  0.66579240  0.47765916  0.14257855     0.18110
F1220       F  0.61860432  0.48307251  0.10386215    -0.19650
C1221       C  0.78993851  0.43297199  0.18624467    -0.21080
C1222       C  0.76080931  0.44455981  0.17407999    -0.09130
C1223       C  0.76169051  0.45678130  0.14048925     0.29730
C1224       C  0.79127322  0.45815298  0.12014489    -0.21080
C1225       C  0.82055594  0.44839242  0.13307068    -0.09140
C1226       C  0.81963593  0.43521008  0.16608143     0.29740
F1227       F  0.84786522  0.42579052  0.17919411    -0.19660
H1228       H  0.78998740  0.42314948  0.21171602     0.18100
H1229       H  0.79185781  0.46919545  0.09503829     0.18110
F1230       F  0.73481926  0.46999702  0.12788649    -0.19650
C1231       C  0.69613940  0.00775501  0.28920236    -0.21080
C1232       C  0.70674413  0.47639448  0.28176034    -0.09130
C1233       C  0.72201414  0.45752971  0.30593560     0.29730
C1234       C  0.72692908  0.46999317  0.33681074    -0.21080
C1235       C  0.71658180  0.00140082  0.34423443    -0.09140
C1236       C  0.70103455  0.02023645  0.32020521     0.29740
F1237       F  0.69140026  0.05097661  0.32645152    -0.19660
H1238       H  0.68470136  0.02282107  0.27073817     0.18100
H1239       H  0.73845114  0.45490068  0.35519861     0.18110
F1240       F  0.73168446  0.42677289  0.29981111    -0.19650
C1241       C  0.87436227  0.16347426  0.08673511    -0.21080
C1242       C  0.84101090  0.16151745  0.09967972    -0.09130
C1243       C  0.82576771  0.13023584  0.11138329     0.29730
C1244       C  0.84388062  0.10162792  0.10991423    -0.21080
C1245       C  0.87707474  0.10403645  0.09638638    -0.09140
C1246       C  0.89216376  0.13528291  0.08527921     0.29740
F1247       F  0.92428420  0.13849184  0.07251534    -0.19660
H1248       H  0.88669251  0.18699028  0.07697674     0.18100
H1249       H  0.83175046  0.07760275  0.11825184     0.18110
F1250       F  0.79365412  0.12735119  0.12423222    -0.19650
C1251       C  0.88620266  0.28284129  0.09238488    -0.21080
C1252       C  0.85232826  0.28314119  0.10377061    -0.09130
C1253       C  0.84045510  0.31276421  0.11502623     0.29730
C1254       C  0.86139283  0.34179711  0.11260413    -0.21080
C1255       C  0.89460027  0.34170131  0.09958191    -0.09140
C1256       C  0.90726090  0.31182637  0.09051676     0.29740
F1257       F  0.93906902  0.31126259  0.07725545    -0.19660
H1258       H  0.89604717  0.26054264  0.08318793     0.18100
H1259       H  0.85133272  0.36479738  0.11975379     0.18110
F1260       F  0.80851741  0.31388226  0.12770952    -0.19650
C1261       C  0.53957958  0.18570383  0.03469086    -0.21080
C1262       C  0.57181914  0.18544122  0.01877988    -0.09130
C1263       C  0.58191622  0.15573501  0.00600937     0.29730
C1264       C  0.56107643  0.12666654  0.01112295    -0.21080
C1265       C  0.52961678  0.12682783  0.02827808    -0.09140
C1266       C  0.51857230  0.15670226  0.03922940     0.29740
F1267       F  0.98864965  0.15733456  0.05656301    -0.19660
H1268       H  0.53119667  0.20797058  0.04529440     0.18100
H1269       H  0.56989707  0.10366324  0.00255624     0.18110
F1270       F  0.61210078  0.15458174  0.48918074    -0.19650
C1271       C  0.59498578  0.33579017  0.50449888    -0.21080
C1272       C  0.58598978  0.30660701  0.02461729    -0.09130
C1273       C  0.55920281  0.30628701  0.04874694     0.29730
C1274       C  0.54151553  0.33437674  0.05250785    -0.21080
C1275       C  0.54996176  0.36369074  0.03239130    -0.09140
C1276       C  0.57693702  0.36420775  0.00815426     0.29740
F1277       F  0.58621644  0.39214865  0.48854943    -0.19660
H1278       H  0.61557233  0.33636143  0.48573634     0.18100
H1279       H  0.52085498  0.33299194  0.07127566     0.18110
F1280       F  0.55017225  0.27862789  0.06892116    -0.19650
C1281       C  0.74162307  0.25364800  0.04300910    -0.21080
C1282       C  0.74578820  0.22949679  0.06866056    -0.09130
C1283       C  0.71786255  0.20908177  0.08183088     0.29730
C1284       C  0.68660879  0.21300779  0.06979024    -0.21080
C1285       C  0.68236310  0.23727484  0.04429811    -0.09140
C1286       C  0.71032102  0.25754932  0.03092553     0.29740
F1287       F  0.70756909  0.28064281  0.00568857    -0.19660
H1288       H  0.76275636  0.26941192  0.03207044     0.18100
H1289       H  0.66546631  0.19741192  0.08097594     0.18110
F1290       F  0.72046926  0.18612995  0.10722952    -0.19650
C1291       C  0.60286851  0.27556765  0.02025339     0.03350
C1292       C  0.63578712  0.27266165  0.52865835    -0.12800
C1293       C  0.64873060  0.24111485  0.53210318     0.00850
C1294       C  0.62814087  0.21270428  0.52703789    -0.11320
C1295       C  0.59526118  0.21542242  0.01834556     0.03340
C1296       C  0.58340929  0.24707166  0.01388100    -0.10750
H1297       H  0.65034260  0.29455747  0.53486292     0.08940
H1298       H  0.63731326  0.18834375  0.53143136     0.06470
H1299       H  0.55795308  0.24953637  0.00769449     0.06310
C1300       C  0.82341721  0.19274033  0.60013718     0.03350
C1301       C  0.79199342  0.19519963  0.58755694    -0.12800
C1302       C  0.77891023  0.22650616  0.58228132     0.00830
C1303       C  0.79827318  0.25530352  0.58870412    -0.11320
C1304       C  0.82957114  0.25307137  0.60154916     0.03340
C1305       C  0.84094192  0.22167075  0.60866037    -0.10750
H1306       H  0.77859508  0.17312148  0.58016358     0.08940
H1307       H  0.78927678  0.27948418  0.58285826     0.06470
H1308       H  0.86479521  0.21981838  0.61908692     0.06310
C1309       C  0.67019503  0.44866113  0.70308967     0.03350
C1310       C  0.67243495  0.46043595  0.73489691    -0.12800
C1311       C  0.70360325  0.46401713  0.74831242     0.00850
C1312       C  0.73249684  0.45742075  0.72893086    -0.11320
C1313       C  0.73044565  0.44625520  0.69686535     0.03340
C1314       C  0.69905026  0.43986587  0.68533871    -0.10750
H1315       H  0.65032885  0.46762453  0.74871327     0.08940
H1316       H  0.75661727  0.46257643  0.73833637     0.06470
H1317       H  0.69709193  0.42996991  0.66122170     0.06310
C1318       C  0.75652873  0.02385758  0.92259586     0.03350
C1319       C  0.72835035  0.02873990  0.94352100    -0.12800
C1320       C  0.69639336  0.02515211  0.93217875     0.00850
C1321       C  0.69295025  0.01857254  0.89883651    -0.11320
C1322       C  0.72099601  0.01345678  0.87759716     0.03340
C1323       C  0.75276860  0.01580238  0.88977653    -0.10750
H1324       H  0.73121000  0.03330456  0.96930410     0.08940
H1325       H  0.66831329  0.01490998  0.89008674     0.06470
H1326       H  0.77437666  0.01024566  0.87412705     0.06310
C1327       C  0.50598181  0.12225008  0.77241542     0.03350
C1328       C  0.49668159  0.15503679  0.77461203    -0.12800
C1329       C  0.49259324  0.16873379  0.80574102     0.00850
C1330       C  0.49780318  0.14909570  0.83455689    -0.11320
C1331       C  0.50738040  0.11634294  0.83260913     0.03340
C1332       C  0.51271143  0.10383012  0.80131431    -0.10750
H1333       H  0.49114886  0.16925285  0.75238353     0.08940
H1334       H  0.49219367  0.15869563  0.85857602     0.06470
H1335       H  0.52005263  0.07861913  0.79947999     0.06310
C1336       C  0.92847055  0.34525707  0.85475239     0.03350
C1337       C  0.93844986  0.31268274  0.85227641    -0.12800
C1338       C  0.94270722  0.29922229  0.82097632     0.00850
C1339       C  0.93682792  0.31882655  0.79230676    -0.11320
C1340       C  0.92713034  0.35139400  0.79469076     0.03340
C1341       C  0.92191034  0.36381655  0.82588187    -0.10750
H1342       H  0.94408831  0.29837411  0.87440489     0.08940
H1343       H  0.94176184  0.30947793  0.76803440     0.06470
H1344       H  0.91449109  0.38904197  0.82748516     0.06310
O1345       O  0.52840374  0.41538167  0.51452644    -0.86270
O1346       O  0.92727034  0.46313868  0.66833350    -0.86430
O1347       O  0.53175597  0.43543662  0.62783784    -0.88100
O1348       O  0.94210584  0.37985328  0.60086912    -0.86860
O1349       O  0.89797993  0.39342691  0.57109579    -0.86450
O1350       O  0.55362467  0.48892296  0.61522298    -0.87820
O1351       O  0.95803270  0.41931145  0.65446701    -0.86300
O1352       O  0.51637353  0.39357596  0.56793114    -0.85880
Zr1353     Zr  0.98113175  0.42945083  0.59806364     2.84310
O1354       O  0.92803175  0.44875980  0.59910720    -1.07860
O1355       O  0.51726740  0.46522799  0.56245938    -1.08590
C1356       C  0.53059200  0.39303312  0.53843696     1.06840
C1357       C  0.93925738  0.43462842  0.67459002     1.06780
C1358       C  0.55415439  0.45954013  0.62934025     1.09770
C1359       C  0.91309989  0.37364231  0.58999904     1.07550
H1360       H  0.98961452  0.48244729  0.63972355     0.33100
O1361       O  0.98195401  0.48291587  0.61766732    -1.28810
H1362       H  0.96171356  0.40737838  0.53720936     0.32780
O1363       O  0.96216024  0.42959719  0.54479378    -1.30490
O1364       O  0.89730187  0.05196285  0.61383146    -0.86260
O1365       O  0.99953040  0.50475224  0.95978740    -0.87760
O1366       O  0.51173656  0.04898884  0.63215979    -0.86340
O1367       O  0.85884853  0.44690986  0.58557675    -0.86390
O1368       O  0.91441180  0.41854493  0.49571163    -0.86100
O1369       O  0.56759320  0.01995878  0.54341939    -0.85900
O1370       O  0.98247292  0.08835640  0.52772555    -0.86280
O1371       O  0.89404036  0.03141421  0.49895791    -0.85740
O1372       O  0.52685192  0.07524280  0.55745057    -0.86800
O1373       O  0.87274903  0.47785276  0.51093199    -0.85960
O1374       O  0.95834640  0.03645366  0.65483982    -0.86360
O1375       O  0.55491534  0.48886149  0.49971794    -0.86080
O1376       O  0.96779199  0.43178065  0.97325780    -0.85730
O1377       O  0.87273378  0.47642787  0.62993784    -0.86140
O1378       O  0.90973880  0.07422693  0.56050201    -0.86430
O1379       O  0.96855913  0.04854260  0.97344103    -0.87770
Zr1380     Zr  0.92827451  0.50170464  0.61879242     2.83100
Zr1381     Zr  0.99792023  0.46604853  0.50931570     2.83500
Zr1382     Zr  0.51718452  0.01890284  0.58139295     2.84090
Zr1383     Zr  0.90856038  0.44902503  0.54641397     2.83360
Zr1384     Zr  0.94433404  0.03819404  0.52970365     2.84220
O1385       O  0.94404501  0.48476463  0.51018500    -1.08340
O1386       O  0.96354606  0.03816342  0.58301033    -1.07850
C1387       C  0.89556423  0.07451268  0.59004580     1.06810
C1388       C  0.98792277  0.03346697  0.95355054     1.09430
C1389       C  0.98790247  0.05053800  0.65505539     1.06990
C1390       C  0.85277121  0.45766353  0.61474599     1.07350
C1391       C  0.93844310  0.41734955  0.97290933     1.06930
C1392       C  0.57461328  0.50783527  0.51508467     1.06480
C1393       C  0.51137335  0.09493309  0.53868258     1.06910
C1394       C  0.87227433  0.00692077  0.49615740     1.06420
H1395       H  0.51263663  0.03382332  0.51396382     0.33100
O1396       O  0.99777011  0.01912909  0.52869613    -1.29440
H1397       H  0.88604062  0.00989595  0.56637415     0.33120
O1398       O  0.90837267  0.50253688  0.56566904    -1.30830
C1399       C  0.94720016  0.40425508  0.76270217    -0.21080
C1400       C  0.92705277  0.37436534  0.76488244    -0.09130
C1401       C  0.90818882  0.36653047  0.73828788     0.29730
C1402       C  0.91046308  0.38778006  0.70953656    -0.21080
C1403       C  0.93127693  0.41714985  0.70714299    -0.09140
C1404       C  0.94949634  0.42542337  0.73395952     0.29740
F1405       F  0.97124386  0.45264901  0.73141801    -0.19660
H1406       H  0.96227292  0.41049133  0.78281467     0.18100
H1407       H  0.89698384  0.38070754  0.68857799     0.18110
F1408       F  0.88801707  0.33821713  0.73997424    -0.19650
C1409       C  0.91591535  0.36728858  0.94511299    -0.21080
C1410       C  0.93288356  0.39891705  0.94319973    -0.09130
C1411       C  0.94768849  0.41227127  0.91242687     0.29730
C1412       C  0.94630886  0.39427355  0.88443233    -0.21080
C1413       C  0.92973558  0.36258304  0.88597385    -0.09140
C1414       C  0.91450871  0.34902962  0.91664455     0.29740
F1415       F  0.89810416  0.31852577  0.91898828    -0.19660
H1416       H  0.90463570  0.35642966  0.96868465     0.18100
H1417       H  0.95863395  0.40519517  0.86131536     0.18110
F1418       F  0.96375283  0.44295081  0.90935570    -0.19650
C1419       C  0.98341788  0.07440774  0.74367376    -0.21080
C1420       C  0.50284478  0.10460449  0.74162009    -0.09130
C1421       C  0.51840152  0.11686491  0.71069453     0.29730
C1422       C  0.51443977  0.09888608  0.68239859    -0.21080
C1423       C  0.99444700  0.06890481  0.68464378    -0.09140
C1424       C  0.97926392  0.05673972  0.71571675     0.29740
F1425       F  0.96057590  0.02741749  0.71924217    -0.19660
H1426       H  0.97100102  0.06453423  0.76714509     0.18100
H1427       H  0.52632494  0.10869589  0.65869072     0.18110
F1428       F  0.53764606  0.14580790  0.70796786    -0.19650
C1429       C  0.49236554  0.06087210  0.86286353    -0.21080
C1430       C  0.50698090  0.09352861  0.86293249    -0.09130
C1431       C  0.51865353  0.10442284  0.89262454     0.29730
C1432       C  0.01380917  0.08383056  0.92178812    -0.21080
C1433       C  0.99804153  0.05185513  0.92172305    -0.09140
C1434       C  0.98815255  0.04012885  0.89192483     0.29740
F1435       F  0.97212441  0.00967682  0.89140515    -0.19660
H1436       H  0.48254869  0.05184682  0.84065016     0.18100
H1437       H  0.02160479  0.09315864  0.94474802     0.18110
F1438       F  0.53424921  0.13505932  0.89364410    -0.19650
C1439       C  0.49577683  0.22487566  0.82903413    -0.21080
C1440       C  0.98019445  0.20242816  0.80886786    -0.09130
C1441       C  0.95198430  0.21193570  0.79309956     0.29730
C1442       C  0.93988009  0.24325026  0.79736798    -0.21080
C1443       C  0.95540342  0.26567769  0.81758634    -0.09140
C1444       C  0.98367732  0.25620858  0.83329289     0.29740
F1445       F  0.50029286  0.27760291  0.85188453    -0.19660
H1446       H  0.51762226  0.21820280  0.84129196     0.18100
H1447       H  0.91799916  0.24987882  0.78515062     0.18110
F1448       F  0.93535879  0.19054428  0.77451659    -0.19650
C1449       C  0.63925132  0.04218913  0.94844867    -0.21080
C1450       C  0.66660449  0.02410068  0.95598883    -0.09130
C1451       C  0.66429256  0.50293985  0.98520247     0.29730
C1452       C  0.63484272  0.49946196  0.00590602    -0.21080
C1453       C  0.60732435  0.01676230  0.99766801    -0.09140
C1454       C  0.60976653  0.03847192  0.96904852     0.29740
F1455       F  0.58309356  0.05493873  0.96032179    -0.19660
H1456       H  0.64044707  0.05848058  0.92609253     0.18100
H1457       H  0.63288813  0.48188095  0.02735199     0.18110
F1458       F  0.68958642  0.48378765  0.99247151    -0.19650
C1459       C  0.79646090  0.98854807  0.94812092    -0.21080
C1460       C  0.78849529  0.02036328  0.93742976    -0.09130
C1461       C  0.80898763  0.04804705  0.94445935     0.29730
C1462       C  0.83686920  0.04373217  0.96273770    -0.21080
C1463       C  0.84429943  0.01176352  0.97463628    -0.09140
C1464       C  0.82386634  0.48410181  0.96651246     0.29740
F1465       F  0.82977799  0.45253053  0.97670323    -0.19660
H1466       H  0.78062822  0.46703526  0.94312287     0.18100
H1467       H  0.85202569  0.06544111  0.96836905     0.18110
F1468       F  0.80160705  0.07915281  0.93426832    -0.19650
C1469       C  0.58042057  0.43767536  0.67995395    -0.21080
C1470       C  0.58339976  0.45391780  0.64807671    -0.09130
C1471       C  0.61463799  0.46782934  0.63485510     0.29730
C1472       C  0.64216225  0.46620504  0.65333129    -0.21080
C1473       C  0.63950907  0.45036053  0.68530941    -0.09140
C1474       C  0.60835489  0.43606747  0.69866825     0.29740
F1475       F  0.60506165  0.42034569  0.72940203    -0.19660
H1476       H  0.55641057  0.42711966  0.69062448     0.18100
H1477       H  0.66579239  0.47765911  0.64257844     0.18110
F1478       F  0.61860426  0.48307248  0.60386210    -0.19650
C1479       C  0.78993852  0.43297200  0.68624472    -0.21080
C1480       C  0.76080935  0.44455983  0.67407999    -0.09130
C1481       C  0.76169059  0.45678130  0.64048923     0.29730
C1482       C  0.79127332  0.45815291  0.62014492    -0.21080
C1483       C  0.82055599  0.44839227  0.63307075    -0.09140
C1484       C  0.81963595  0.43521001  0.66608151     0.29740
F1485       F  0.84786522  0.42579047  0.67919424    -0.19660
H1486       H  0.78998737  0.42314951  0.71171608     0.18100
H1487       H  0.79185796  0.46919537  0.59503830     0.18110
F1488       F  0.73481938  0.46999704  0.62788644    -0.19650
C1489       C  0.69613930  0.00775497  0.78920240    -0.21080
C1490       C  0.70674409  0.47639449  0.78176029    -0.09130
C1491       C  0.72201396  0.45752964  0.80593560     0.29730
C1492       C  0.72692891  0.46999308  0.83681074    -0.21080
C1493       C  0.71658180  0.00140084  0.84423443    -0.09140
C1494       C  0.70103444  0.02023642  0.82020524     0.29740
F1495       F  0.69140005  0.05097653  0.82645159    -0.19660
H1496       H  0.68470118  0.02282099  0.77073824     0.18100
H1497       H  0.73845087  0.45490055  0.85519864     0.18110
F1498       F  0.73168416  0.42677277  0.79981114    -0.19650
C1499       C  0.87436231  0.16347431  0.58673511    -0.21080
C1500       C  0.84101094  0.16151750  0.59967971    -0.09130
C1501       C  0.82576775  0.13023590  0.61138330     0.29730
C1502       C  0.84388067  0.10162798  0.60991427    -0.21080
C1503       C  0.87707479  0.10403652  0.59638644    -0.09140
C1504       C  0.89216381  0.13528296  0.58527924     0.29740
F1505       F  0.92428425  0.13849188  0.57251537    -0.19660
H1506       H  0.88669255  0.18699032  0.57697672     0.18100
H1507       H  0.83175051  0.07760281  0.61825188     0.18110
F1508       F  0.79365415  0.12735125  0.62423223    -0.19650
C1509       C  0.88620267  0.28284136  0.59238486    -0.21080
C1510       C  0.85232827  0.28314123  0.60377059    -0.09130
C1511       C  0.84045508  0.31276423  0.61502626     0.29730
C1512       C  0.86139278  0.34179712  0.61260422    -0.21080
C1513       C  0.89460022  0.34170136  0.59958203    -0.09140
C1514       C  0.90726088  0.31182646  0.59051679     0.29740
F1515       F  0.93906901  0.31126271  0.57725547    -0.19660
H1516       H  0.89604719  0.26054274  0.58318788     0.18100
H1517       H  0.85133265  0.36479737  0.61975392     0.18110
F1518       F  0.80851739  0.31388224  0.62770953    -0.19650
C1519       C  0.53957959  0.18570382  0.53469087    -0.21080
C1520       C  0.57181916  0.18544122  0.51877990    -0.09130
C1521       C  0.58191625  0.15573501  0.50600939     0.29730
C1522       C  0.56107646  0.12666655  0.51112294    -0.21080
C1523       C  0.52961681  0.12682783  0.52827806    -0.09140
C1524       C  0.51857232  0.15670225  0.53922939     0.29740
F1525       F  0.98864964  0.15733458  0.55656303    -0.19660
H1526       H  0.53119668  0.20797057  0.54529442     0.18100
H1527       H  0.56989711  0.10366326  0.50255623     0.18110
F1528       F  0.61210074  0.15458173  0.98918072    -0.19650
C1529       C  0.59498584  0.33579017  0.00449885    -0.21080
C1530       C  0.58598974  0.30660701  0.52461733    -0.09130
C1531       C  0.55920277  0.30628700  0.54874696     0.29730
C1532       C  0.54151543  0.33437671  0.55250784    -0.21080
C1533       C  0.54996161  0.36369069  0.53239125    -0.09140
C1534       C  0.57693691  0.36420773  0.50815425     0.29740
F1535       F  0.58621654  0.39214867  0.98854944    -0.19660
H1536       H  0.61557237  0.33636142  0.98573630     0.18100
H1537       H  0.52085489  0.33299189  0.57127564     0.18110
F1538       F  0.55017223  0.27862788  0.56892120    -0.19650
C1539       C  0.74162308  0.25364802  0.54300909    -0.21080
C1540       C  0.74578822  0.22949682  0.56866055    -0.09130
C1541       C  0.71786258  0.20908180  0.58183088     0.29730
C1542       C  0.68660882  0.21300782  0.56979026    -0.21080
C1543       C  0.68236311  0.23727485  0.54429813    -0.09140
C1544       C  0.71032102  0.25754934  0.53092553     0.29740
F1545       F  0.70756908  0.28064282  0.50568857    -0.19660
H1546       H  0.76275637  0.26941195  0.53207042     0.18100
H1547       H  0.66546634  0.19741194  0.58097597     0.18110
F1548       F  0.72046931  0.18612998  0.60722952    -0.19650
C1549       C  0.60286850  0.77556765  0.52025342     0.03350
C1550       C  0.63578714  0.77266166  0.02865832    -0.12800
C1551       C  0.64873061  0.74111486  0.03210315     0.00850
C1552       C  0.62814088  0.71270429  0.02703786    -0.11320
C1553       C  0.59526118  0.71542242  0.51834560     0.03340
C1554       C  0.58340929  0.74707165  0.51388103    -0.10750
H1555       H  0.65034262  0.79455747  0.03486289     0.08940
H1556       H  0.63731326  0.68834376  0.03143133     0.06470
H1557       H  0.55795308  0.74953635  0.50769452     0.06310
C1558       C  0.82341718  0.69274028  0.10013720     0.03350
C1559       C  0.79199340  0.69519960  0.08755695    -0.12800
C1560       C  0.77891022  0.72650614  0.08228133     0.00830
C1561       C  0.79827318  0.75530349  0.08870415    -0.11320
C1562       C  0.82957114  0.75307133  0.10154919     0.03340
C1563       C  0.84094191  0.72167070  0.10866039    -0.10750
H1564       H  0.77859505  0.67312146  0.08016359     0.08940
H1565       H  0.78927679  0.77948416  0.08285828     0.06470
H1566       H  0.86479520  0.71981832  0.11908694     0.06310
C1567       C  0.67019502  0.94866112  0.20308971     0.03350
C1568       C  0.67243496  0.96043593  0.23489695    -0.12800
C1569       C  0.70360326  0.96401711  0.24831244     0.00850
C1570       C  0.73249684  0.95742072  0.22893087    -0.11320
C1571       C  0.73044564  0.94625517  0.19686537     0.03340
C1572       C  0.69905024  0.93986585  0.18533874    -0.10750
H1573       H  0.65032886  0.96762452  0.24871331     0.08940
H1574       H  0.75661728  0.96257640  0.23833637     0.06470
H1575       H  0.69709190  0.92996988  0.16122173     0.06310
C1576       C  0.75652873  0.52385758  0.42259588     0.03350
C1577       C  0.72835035  0.52873989  0.44352102    -0.12800
C1578       C  0.69639337  0.52515210  0.43217876     0.00850
C1579       C  0.69295026  0.51857254  0.39883653    -0.11320
C1580       C  0.72099603  0.51345678  0.37759718     0.03340
C1581       C  0.75276861  0.51580239  0.38977655    -0.10750
H1582       H  0.73121001  0.53330453  0.46930413     0.08940
H1583       H  0.66831330  0.51490998  0.39008676     0.06470
H1584       H  0.77437668  0.51024568  0.37412707     0.06310
C1585       C  0.50598183  0.62225009  0.27241542     0.03350
C1586       C  0.49668161  0.65503680  0.27461203    -0.12800
C1587       C  0.49259325  0.66873380  0.30574103     0.00850
C1588       C  0.49780318  0.64909570  0.33455689    -0.11320
C1589       C  0.50738041  0.61634295  0.33260913     0.03340
C1590       C  0.51271144  0.60383013  0.30131431    -0.10750
H1591       H  0.49114888  0.66925286  0.25238353     0.08940
H1592       H  0.49219367  0.65869563  0.35857602     0.06470
H1593       H  0.52005265  0.57861914  0.29947999     0.06310
C1594       C  0.92847056  0.84525707  0.35475239     0.03350
C1595       C  0.93844988  0.81268274  0.35227641    -0.12800
C1596       C  0.94270722  0.79922229  0.32097632     0.00850
C1597       C  0.93682791  0.81882655  0.29230676    -0.11320
C1598       C  0.92713032  0.85139399  0.29469076     0.03340
C1599       C  0.92191033  0.86381654  0.32588188    -0.10750
H1600       H  0.94408834  0.79837412  0.37440489     0.08940
H1601       H  0.94176182  0.80947792  0.26803440     0.06470
H1602       H  0.91449107  0.88904196  0.32748517     0.06310
O1603       O  0.52840383  0.91538169  0.01452647    -0.86270
O1604       O  0.92727045  0.96313875  0.16833358    -0.86430
O1605       O  0.53175601  0.93543658  0.12783777    -0.88100
O1606       O  0.94210592  0.87985325  0.10086900    -0.86860
O1607       O  0.89798002  0.89342686  0.07109564    -0.86450
O1608       O  0.55362469  0.98892293  0.11522295    -0.87820
O1609       O  0.95803279  0.91931152  0.15446707    -0.86300
O1610       O  0.51637366  0.89357601  0.06793118    -0.85880
Zr1611     Zr  0.98113176  0.92945088  0.09806367     2.84310
O1612       O  0.92803153  0.94875957  0.09910745    -1.07860
O1613       O  0.51726729  0.96522800  0.06245941    -1.08590
C1614       C  0.53059211  0.89303316  0.03843700     1.06840
C1615       C  0.93925745  0.93462847  0.17459008     1.06780
C1616       C  0.55415442  0.95954009  0.12934021     1.09770
C1617       C  0.91309997  0.87364227  0.08999891     1.07550
H1618       H  0.98961412  0.98244739  0.13972211     0.33100
O1619       O  0.98195372  0.98291596  0.11766623    -1.28810
H1620       H  0.96171369  0.90738040  0.03720996     0.32780
O1621       O  0.96216035  0.92959875  0.04479425    -1.30490
O1622       O  0.89730175  0.55196270  0.11383134    -0.86260
O1623       O  0.99953026  0.00475214  0.45978749    -0.87760
O1624       O  0.51173651  0.54898890  0.13215977    -0.86340
O1625       O  0.85884848  0.94691004  0.08557665    -0.86390
O1626       O  0.91441192  0.91854479  0.99571173    -0.86100
O1627       O  0.56759315  0.51995869  0.04341946    -0.85900
O1628       O  0.98247303  0.58835646  0.02772542    -0.86280
O1629       O  0.89404034  0.53141427  0.99895800    -0.85740
O1630       O  0.52685184  0.57524276  0.05745069    -0.86800
O1631       O  0.87274894  0.97785284  0.01093216    -0.85960
O1632       O  0.95834651  0.53645351  0.15483990    -0.86360
O1633       O  0.55491531  0.98886142  0.99971799    -0.86080
O1634       O  0.96779191  0.93178073  0.47325773    -0.85730
O1635       O  0.87273375  0.97642801  0.12993776    -0.86140
O1636       O  0.90973871  0.57422681  0.06050191    -0.86430
O1637       O  0.96855898  0.54854250  0.47344110    -0.87770
Zr1638     Zr  0.92827458  0.00170463  0.11879244     2.83100
Zr1639     Zr  0.99792033  0.96604869  0.00931562     2.83500
Zr1640     Zr  0.51718445  0.51890277  0.08139304     2.84090
Zr1641     Zr  0.90856041  0.94902505  0.04641396     2.83360
Zr1642     Zr  0.94433422  0.53819412  0.02970353     2.84220
O1643       O  0.94404498  0.98476468  0.01018474    -1.08340
O1644       O  0.96354612  0.53816363  0.08301035    -1.07850
C1645       C  0.89556410  0.57451254  0.09004569     1.06810
C1646       C  0.98792264  0.53346689  0.45355062     1.09430
C1647       C  0.98790255  0.55053789  0.15505544     1.06990
C1648       C  0.85277117  0.95766368  0.11474591     1.07350
C1649       C  0.93844300  0.91734968  0.47290923     1.06930
C1650       C  0.57461325  0.00783523  0.01508470     1.06480
C1651       C  0.51137327  0.59493306  0.03868268     1.06910
C1652       C  0.87227427  0.50692085  0.99615755     1.06420
H1653       H  0.51263695  0.53382366  0.01396347     0.33100
O1654       O  0.99776987  0.51912884  0.02869641    -1.29440
H1655       H  0.88604300  0.50989529  0.06637404     0.33120
O1656       O  0.90837432  0.00253643  0.06566895    -1.30830
C1657       C  0.94720011  0.90425508  0.26270222    -0.21080
C1658       C  0.92705275  0.87436533  0.26488245    -0.09130
C1659       C  0.90818882  0.86653047  0.23828787     0.29730
C1660       C  0.91046310  0.88778007  0.20953656    -0.21080
C1661       C  0.93127694  0.91714987  0.20714302    -0.09140
C1662       C  0.94949631  0.92542339  0.23395958     0.29740
F1663       F  0.97124381  0.95264904  0.23141809    -0.19660
H1664       H  0.96227286  0.91049133  0.28281473     0.18100
H1665       H  0.89698388  0.88070755  0.18857797     0.18110
F1666       F  0.88801709  0.83821711  0.23997422    -0.19650
C1667       C  0.91591533  0.86728865  0.44511295    -0.21080
C1668       C  0.93288350  0.89891714  0.44319966    -0.09130
C1669       C  0.94768849  0.91227131  0.41242681     0.29730
C1670       C  0.94630890  0.89427355  0.38443230    -0.21080
C1671       C  0.92973560  0.86258305  0.38597384    -0.09140
C1672       C  0.91450872  0.84902965  0.41664454     0.29740
F1673       F  0.89810418  0.81852580  0.41898829    -0.19660
H1674       H  0.90463568  0.85642975  0.46868462     0.18100
H1675       H  0.95863401  0.90519514  0.36131532     0.18110
F1676       F  0.96375286  0.94295084  0.40935563    -0.19650
C1677       C  0.98341784  0.57440774  0.24367376    -0.21080
C1678       C  0.50284480  0.60460450  0.24162009    -0.09130
C1679       C  0.51840155  0.61686493  0.21069454     0.29730
C1680       C  0.51443977  0.59888611  0.18239858    -0.21080
C1681       C  0.99444704  0.56890474  0.18464381    -0.09140
C1682       C  0.97926391  0.55673969  0.21571678     0.29740
F1683       F  0.96057586  0.52741748  0.21924220    -0.19660
H1684       H  0.97100096  0.56453425  0.26714509     0.18100
H1685       H  0.52632493  0.60869593  0.15869071     0.18110
F1686       F  0.53764609  0.64580791  0.20796788    -0.19650
C1687       C  0.49236554  0.56087211  0.36286351    -0.21080
C1688       C  0.50698090  0.59352863  0.36293247    -0.09130
C1689       C  0.51865355  0.60442286  0.39262452     0.29730
C1690       C  0.01380911  0.58383051  0.42178817    -0.21080
C1691       C  0.99804146  0.55185509  0.42172311    -0.09140
C1692       C  0.98815251  0.54012882  0.39192486     0.29740
F1693       F  0.97212438  0.50967680  0.39140516    -0.19660
H1694       H  0.48254868  0.55184684  0.34065015     0.18100
H1695       H  0.02160472  0.59315860  0.44474808     0.18110
F1696       F  0.53424922  0.63505933  0.39364409    -0.19650
C1697       C  0.49577682  0.72487566  0.32903415    -0.21080
C1698       C  0.98019445  0.70242816  0.30886785    -0.09130
C1699       C  0.95198430  0.71193570  0.29309955     0.29730
C1700       C  0.93988009  0.74325026  0.29736798    -0.21080
C1701       C  0.95540343  0.76567769  0.31758634    -0.09140
C1702       C  0.98367733  0.75620858  0.33329288     0.29740
F1703       F  0.50029284  0.77760291  0.35188456    -0.19660
H1704       H  0.51762224  0.71820279  0.34129199     0.18100
H1705       H  0.91799917  0.74987882  0.28515062     0.18110
F1706       F  0.93535879  0.69054429  0.27451658    -0.19650
C1707       C  0.63925135  0.54218914  0.44844867    -0.21080
C1708       C  0.66660451  0.52410066  0.45598883    -0.09130
C1709       C  0.66429255  0.00293980  0.48520246     0.29730
C1710       C  0.63484272  0.99946194  0.50590600    -0.21080
C1711       C  0.60732438  0.51676232  0.49766800    -0.09140
C1712       C  0.60976656  0.53847193  0.46904851     0.29740
F1713       F  0.58309359  0.55493874  0.46032178    -0.19660
H1714       H  0.64044711  0.55848059  0.42609253     0.18100
H1715       H  0.63288810  0.98188091  0.52735196     0.18110
F1716       F  0.68958640  0.98378757  0.49247149    -0.19650
C1717       C  0.79646089  0.48854806  0.44812091    -0.21080
C1718       C  0.78849529  0.52036328  0.43742977    -0.09130
C1719       C  0.80898764  0.54804704  0.44445936     0.29730
C1720       C  0.83686923  0.54373214  0.46273767    -0.21080
C1721       C  0.84429947  0.51176348  0.47463620    -0.09140
C1722       C  0.82386636  0.98410177  0.46651240     0.29740
F1723       F  0.82977801  0.95253049  0.47670315    -0.19660
H1724       H  0.78062820  0.96703524  0.44312286     0.18100
H1725       H  0.85202573  0.56544107  0.46836903     0.18110
F1726       F  0.80160706  0.57915281  0.43426835    -0.19650
C1727       C  0.58042057  0.93767536  0.17995394    -0.21080
C1728       C  0.58339978  0.95391778  0.14807670    -0.09130
C1729       C  0.61463800  0.96782935  0.13485512     0.29730
C1730       C  0.64216226  0.96620507  0.15333133    -0.21080
C1731       C  0.63950906  0.95036054  0.18530944    -0.09140
C1732       C  0.60835488  0.93606748  0.19866827     0.29740
F1733       F  0.60506163  0.92034570  0.22940205    -0.19660
H1734       H  0.55641056  0.92711966  0.19062446     0.18100
H1735       H  0.66579239  0.97765914  0.14257850     0.18110
F1736       F  0.61860429  0.98307251  0.10386213    -0.19650
C1737       C  0.78993852  0.93297199  0.18624468    -0.21080
C1738       C  0.76080933  0.94455981  0.17407998    -0.09130
C1739       C  0.76169055  0.95678130  0.14048923     0.29730
C1740       C  0.79127327  0.95815295  0.12014489    -0.21080
C1741       C  0.82055596  0.94839236  0.13307070    -0.09140
C1742       C  0.81963594  0.93521004  0.16608145     0.29740
F1743       F  0.84786522  0.92579049  0.17919415    -0.19660
H1744       H  0.78998739  0.92314948  0.21171603     0.18100
H1745       H  0.79185787  0.96919542  0.09503828     0.18110
F1746       F  0.73481931  0.96999703  0.12788646    -0.19650
C1747       C  0.69613938  0.50775501  0.28920239    -0.21080
C1748       C  0.70674411  0.97639447  0.28176031    -0.09130
C1749       C  0.72201408  0.95752967  0.30593559     0.29730
C1750       C  0.72692902  0.96999312  0.33681073    -0.21080
C1751       C  0.71658182  0.50140085  0.34423445    -0.09140
C1752       C  0.70103452  0.52023645  0.32020524     0.29740
F1753       F  0.69140020  0.55097659  0.32645156    -0.19660
H1754       H  0.68470131  0.52282105  0.27073821     0.18100
H1755       H  0.73845105  0.95490062  0.35519860     0.18110
F1756       F  0.73168437  0.92677284  0.29981110    -0.19650
C1757       C  0.87436228  0.66347422  0.08673514    -0.21080
C1758       C  0.84101090  0.66151743  0.09967972    -0.09130
C1759       C  0.82576769  0.63023583  0.11138328     0.29730
C1760       C  0.84388057  0.60162789  0.10991420    -0.21080
C1761       C  0.87707469  0.60403639  0.09638634    -0.09140
C1762       C  0.89216374  0.63528285  0.08527922     0.29740
F1763       F  0.92428420  0.63849177  0.07251538    -0.19660
H1764       H  0.88669255  0.68699023  0.07697679     0.18100
H1765       H  0.83175039  0.57760273  0.11825180     0.18110
F1766       F  0.79365409  0.62735120  0.12423220    -0.19650
C1767       C  0.88620268  0.78284131  0.09238489    -0.21080
C1768       C  0.85232828  0.78314119  0.10377061    -0.09130
C1769       C  0.84045511  0.81276421  0.11502625     0.29730
C1770       C  0.86139282  0.84179710  0.11260417    -0.21080
C1771       C  0.89460026  0.84170133  0.09958196    -0.09140
C1772       C  0.90726091  0.81182640  0.09051678     0.29740
F1773       F  0.93906903  0.81126263  0.07725547    -0.19660
H1774       H  0.89604720  0.76054267  0.08318793     0.18100
H1775       H  0.85133270  0.86479737  0.11975384     0.18110
F1776       F  0.80851741  0.81388224  0.12770953    -0.19650
C1777       C  0.53957959  0.68570382  0.03469087    -0.21080
C1778       C  0.57181915  0.68544121  0.01877989    -0.09130
C1779       C  0.58191622  0.65573499  0.00600939     0.29730
C1780       C  0.56107642  0.62666652  0.01112298    -0.21080
C1781       C  0.52961677  0.62682781  0.02827811    -0.09140
C1782       C  0.51857230  0.65670226  0.03922941     0.29740
F1783       F  0.98864965  0.65733454  0.05656300    -0.19660
H1784       H  0.53119668  0.70797058  0.04529440     0.18100
H1785       H  0.56989706  0.60366322  0.00255628     0.18110
F1786       F  0.61210077  0.65458174  0.48918073    -0.19650
C1787       C  0.59498579  0.83579016  0.50449888    -0.21080
C1788       C  0.58598978  0.80660702  0.02461730    -0.09130
C1789       C  0.55920281  0.80628702  0.04874694     0.29730
C1790       C  0.54151550  0.83437674  0.05250784    -0.21080
C1791       C  0.54996170  0.86369073  0.03239127    -0.09140
C1792       C  0.57693698  0.86420775  0.00815425     0.29740
F1793       F  0.58621646  0.89214864  0.48854943    -0.19660
H1794       H  0.61557233  0.83636142  0.48573633     0.18100
H1795       H  0.52085495  0.83299192  0.07127565     0.18110
F1796       F  0.55017226  0.77862790  0.06892117    -0.19650
C1797       C  0.74162309  0.75364802  0.04300910    -0.21080
C1798       C  0.74578822  0.72949681  0.06866056    -0.09130
C1799       C  0.71786257  0.70908179  0.08183088     0.29730
C1800       C  0.68660881  0.71300781  0.06979024    -0.21080
C1801       C  0.68236312  0.73727486  0.04429811    -0.09140
C1802       C  0.71032104  0.75754934  0.03092552     0.29740
F1803       F  0.70756910  0.78064283  0.00568857    -0.19660
H1804       H  0.76275638  0.76941194  0.03207044     0.18100
H1805       H  0.66546633  0.69741194  0.08097594     0.18110
F1806       F  0.72046929  0.68612997  0.10722951    -0.19650
C1807       C  0.60286852  0.77556766  0.02025339     0.03350
C1808       C  0.63578712  0.77266164  0.52865835    -0.12800
C1809       C  0.64873059  0.74111484  0.53210318     0.00850
C1810       C  0.62814087  0.71270428  0.52703789    -0.11320
C1811       C  0.59526119  0.71542242  0.01834557     0.03340
C1812       C  0.58340930  0.74707167  0.01388100    -0.10750
H1813       H  0.65034260  0.79455746  0.53486292     0.08940
H1814       H  0.63731325  0.68834374  0.53143136     0.06470
H1815       H  0.55795309  0.74953637  0.00769450     0.06310
C1816       C  0.82341720  0.69274032  0.60013719     0.03350
C1817       C  0.79199341  0.69519962  0.58755694    -0.12800
C1818       C  0.77891022  0.72650615  0.58228132     0.00830
C1819       C  0.79827317  0.75530351  0.58870413    -0.11320
C1820       C  0.82957112  0.75307136  0.60154917     0.03340
C1821       C  0.84094191  0.72167074  0.60866039    -0.10750
H1822       H  0.77859508  0.67312147  0.58016357     0.08940
H1823       H  0.78927677  0.77948417  0.58285827     0.06470
H1824       H  0.86479520  0.71981837  0.61908693     0.06310
C1825       C  0.67019502  0.94866112  0.70308970     0.03350
C1826       C  0.67243496  0.96043594  0.73489694    -0.12800
C1827       C  0.70360326  0.96401712  0.74831244     0.00850
C1828       C  0.73249684  0.95742073  0.72893087    -0.11320
C1829       C  0.73044564  0.94625517  0.69686537     0.03340
C1830       C  0.69905025  0.93986585  0.68533874    -0.10750
H1831       H  0.65032885  0.96762452  0.74871330     0.08940
H1832       H  0.75661728  0.96257641  0.73833637     0.06470
H1833       H  0.69709191  0.92996988  0.66122173     0.06310
C1834       C  0.75652873  0.52385756  0.92259584     0.03350
C1835       C  0.72835035  0.52873990  0.94352097    -0.12800
C1836       C  0.69639336  0.52515211  0.93217873     0.00850
C1837       C  0.69295024  0.51857253  0.89883650    -0.11320
C1838       C  0.72099600  0.51345676  0.87759714     0.03340
C1839       C  0.75276859  0.51580235  0.88977651    -0.10750
H1840       H  0.73121001  0.53330456  0.96930407     0.08940
H1841       H  0.66831328  0.51490998  0.89008672     0.06470
H1842       H  0.77437665  0.51024562  0.87412703     0.06310
C1843       C  0.50598181  0.62225008  0.77241542     0.03350
C1844       C  0.49668159  0.65503679  0.77461204    -0.12800
C1845       C  0.49259324  0.66873379  0.80574103     0.00850
C1846       C  0.49780319  0.64909570  0.83455690    -0.11320
C1847       C  0.50738041  0.61634294  0.83260914     0.03340
C1848       C  0.51271142  0.60383011  0.80131431    -0.10750
H1849       H  0.49114886  0.66925285  0.75238353     0.08940
H1850       H  0.49219369  0.65869562  0.85857602     0.06470
H1851       H  0.52005262  0.57861913  0.79948000     0.06310
C1852       C  0.92847055  0.84525707  0.85475239     0.03350
C1853       C  0.93844987  0.81268274  0.85227641    -0.12800
C1854       C  0.94270721  0.79922228  0.82097632     0.00850
C1855       C  0.93682790  0.81882655  0.79230676    -0.11320
C1856       C  0.92713032  0.85139399  0.79469076     0.03340
C1857       C  0.92191033  0.86381654  0.82588187    -0.10750
H1858       H  0.94408832  0.79837411  0.87440489     0.08940
H1859       H  0.94176182  0.80947792  0.76803440     0.06470
H1860       H  0.91449109  0.88904197  0.82748517     0.06310
O1861       O  0.52840377  0.91538167  0.51452645    -0.86270
O1862       O  0.92727039  0.96313871  0.66833354    -0.86430
O1863       O  0.53175599  0.93543661  0.62783782    -0.88100
O1864       O  0.94210587  0.87985326  0.60086906    -0.86860
O1865       O  0.89797996  0.89342689  0.57109572    -0.86450
O1866       O  0.55362469  0.98892295  0.61522297    -0.87820
O1867       O  0.95803273  0.91931148  0.65446704    -0.86300
O1868       O  0.51637358  0.89357598  0.56793115    -0.85880
Zr1869     Zr  0.98113175  0.92945085  0.59806366     2.84310
O1870       O  0.92803163  0.94875969  0.59910733    -1.07860
O1871       O  0.51726737  0.96522800  0.56245939    -1.08590
C1872       C  0.53059204  0.89303313  0.53843698     1.06840
C1873       C  0.93925741  0.93462844  0.67459005     1.06780
C1874       C  0.55415441  0.95954012  0.62934024     1.09770
C1875       C  0.91309992  0.87364229  0.58999898     1.07550
H1876       H  0.98961431  0.98244734  0.63972285     0.33100
O1877       O  0.98195386  0.98291591  0.61766679    -1.28810
H1878       H  0.96171362  0.90737938  0.53720966     0.32780
O1879       O  0.96216028  0.92959796  0.54479401    -1.30490
O1880       O  0.89730193  0.55196291  0.61383150    -0.86260
O1881       O  0.99953034  0.00475218  0.95978745    -0.87760
O1882       O  0.51173657  0.54898883  0.63215979    -0.86340
O1883       O  0.85884850  0.94690995  0.58557671    -0.86390
O1884       O  0.91441185  0.91854486  0.49571168    -0.86100
O1885       O  0.56759321  0.51995880  0.54341938    -0.85900
O1886       O  0.98247288  0.58835638  0.52772561    -0.86280
O1887       O  0.89404037  0.53141419  0.49895787    -0.85740
O1888       O  0.52685193  0.57524281  0.55745055    -0.86800
O1889       O  0.87274898  0.97785280  0.51093207    -0.85960
O1890       O  0.95834637  0.53645372  0.65483978    -0.86360
O1891       O  0.55491534  0.98886146  0.49971795    -0.86080
O1892       O  0.96779197  0.93178069  0.97325776    -0.85730
O1893       O  0.87273376  0.97642793  0.62993781    -0.86140
O1894       O  0.90973885  0.57422698  0.56050205    -0.86430
O1895       O  0.96855921  0.54854266  0.97344100    -0.87770
Zr1896     Zr  0.92827454  0.00170463  0.61879244     2.83100
Zr1897     Zr  0.99792027  0.96604861  0.50931566     2.83500
Zr1898     Zr  0.51718453  0.51890286  0.58139293     2.84090
Zr1899     Zr  0.90856039  0.94902504  0.54641397     2.83360
Zr1900     Zr  0.94433398  0.53819400  0.52970370     2.84220
O1901       O  0.94404498  0.98476466  0.51018488    -1.08340
O1902       O  0.96354605  0.53816333  0.58301032    -1.07850
C1903       C  0.89556429  0.57451274  0.59004584     1.06810
C1904       C  0.98792282  0.53346702  0.95355050     1.09430
C1905       C  0.98790244  0.55053804  0.65505537     1.06990
C1906       C  0.85277118  0.95766360  0.61474596     1.07350
C1907       C  0.93844306  0.91734962  0.97290927     1.06930
C1908       C  0.57461328  0.00783525  0.51508468     1.06480
C1909       C  0.51137336  0.59493310  0.53868256     1.06910
C1910       C  0.87227437  0.50692074  0.49615734     1.06420
H1911       H  0.51263655  0.53382325  0.51396390     0.33100
O1912       O  0.99777023  0.51912920  0.52869600    -1.29440
H1913       H  0.88603959  0.50989624  0.56637420     0.33120
O1914       O  0.90837347  0.00253666  0.56566901    -1.30830
C1915       C  0.94720012  0.90425508  0.76270220    -0.21080
C1916       C  0.92705275  0.87436533  0.76488245    -0.09130
C1917       C  0.90818882  0.86653046  0.73828787     0.29730
C1918       C  0.91046309  0.88778005  0.70953656    -0.21080
C1919       C  0.93127693  0.91714986  0.70714300    -0.09140
C1920       C  0.94949630  0.92542338  0.73395955     0.29740
F1921       F  0.97124380  0.95264903  0.73141806    -0.19660
H1922       H  0.96227287  0.91049134  0.78281471     0.18100
H1923       H  0.89698386  0.88070753  0.68857797     0.18110
F1924       F  0.88801709  0.83821710  0.73997422    -0.19650
C1925       C  0.91591535  0.86728862  0.94511296    -0.21080
C1926       C  0.93288354  0.89891710  0.94319968    -0.09130
C1927       C  0.94768851  0.91227128  0.91242683     0.29730
C1928       C  0.94630890  0.89427354  0.88443231    -0.21080
C1929       C  0.92973560  0.86258304  0.88597384    -0.09140
C1930       C  0.91450871  0.84902964  0.91664454     0.29740
F1931       F  0.89810416  0.81852580  0.91898828    -0.19660
H1932       H  0.90463568  0.85642972  0.96868463     0.18100
H1933       H  0.95863401  0.90519514  0.86131533     0.18110
F1934       F  0.96375289  0.94295081  0.90935566    -0.19650
C1935       C  0.98341790  0.57440773  0.74367375    -0.21080
C1936       C  0.50284477  0.60460449  0.74162009    -0.09130
C1937       C  0.51840152  0.61686491  0.71069453     0.29730
C1938       C  0.51443977  0.59888607  0.68239859    -0.21080
C1939       C  0.99444699  0.56890484  0.68464377    -0.09140
C1940       C  0.97926394  0.55673972  0.71571674     0.29740
F1941       F  0.96057592  0.52741748  0.71924214    -0.19660
H1942       H  0.97100104  0.56453421  0.76714508     0.18100
H1943       H  0.52632494  0.60869587  0.65869072     0.18110
F1944       F  0.53764606  0.64580790  0.70796786    -0.19650
C1945       C  0.49236554  0.56087208  0.86286354    -0.21080
C1946       C  0.50698090  0.59352860  0.86293250    -0.09130
C1947       C  0.51865353  0.60442282  0.89262456     0.29730
C1948       C  0.01380918  0.58383058  0.92178809    -0.21080
C1949       C  0.99804156  0.55185516  0.92172301    -0.09140
C1950       C  0.98815255  0.54012886  0.89192481     0.29740
F1951       F  0.97212440  0.50967684  0.89140515    -0.19660
H1952       H  0.48254870  0.55184681  0.84065018     0.18100
H1953       H  0.02160480  0.59315867  0.94474799     0.18110
F1954       F  0.53424921  0.63505929  0.89364412    -0.19650
C1955       C  0.49577682  0.72487566  0.82903413    -0.21080
C1956       C  0.98019444  0.70242816  0.80886785    -0.09130
C1957       C  0.95198429  0.71193569  0.79309955     0.29730
C1958       C  0.93988008  0.74325025  0.79736798    -0.21080
C1959       C  0.95540341  0.76567769  0.81758634    -0.09140
C1960       C  0.98367731  0.75620858  0.83329289     0.29740
F1961       F  0.50029285  0.77760291  0.85188453    -0.19660
H1962       H  0.51762225  0.71820280  0.84129196     0.18100
H1963       H  0.91799915  0.74987881  0.78515062     0.18110
F1964       F  0.93535878  0.69054428  0.77451658    -0.19650
C1965       C  0.63925131  0.54218912  0.94844867    -0.21080
C1966       C  0.66660449  0.52410067  0.95598882    -0.09130
C1967       C  0.66429255  0.00293985  0.98520247     0.29730
C1968       C  0.63484271  0.99946197  0.00590602    -0.21080
C1969       C  0.60732433  0.51676226  0.99766802    -0.09140
C1970       C  0.60976651  0.53847189  0.96904853     0.29740
F1971       F  0.58309355  0.55493871  0.96032181    -0.19660
H1972       H  0.64044705  0.55848057  0.92609254     0.18100
H1973       H  0.63288811  0.98188096  0.02735199     0.18110
F1974       F  0.68958640  0.98378764  0.99247152    -0.19650
C1975       C  0.79646094  0.48854807  0.94812086    -0.21080
C1976       C  0.78849530  0.52036328  0.93742973    -0.09130
C1977       C  0.80898761  0.54804705  0.94445937     0.29730
C1978       C  0.83686916  0.54373219  0.96273775    -0.21080
C1979       C  0.84429941  0.51176355  0.97463632    -0.09140
C1980       C  0.82386631  0.98410180  0.96651249     0.29740
F1981       F  0.82977793  0.95253052  0.97670329    -0.19660
H1982       H  0.78062814  0.96703527  0.94312296     0.18100
H1983       H  0.85202562  0.56544114  0.96836914     0.18110
F1984       F  0.80160699  0.57915282  0.93426837    -0.19650
C1985       C  0.58042057  0.93767537  0.67995396    -0.21080
C1986       C  0.58339977  0.95391780  0.64807672    -0.09130
C1987       C  0.61463800  0.96782935  0.63485512     0.29730
C1988       C  0.64216226  0.96620505  0.65333132    -0.21080
C1989       C  0.63950906  0.95036054  0.68530944    -0.09140
C1990       C  0.60835488  0.93606748  0.69866827     0.29740
F1991       F  0.60506164  0.92034570  0.72940205    -0.19660
H1992       H  0.55641056  0.92711967  0.69062448     0.18100
H1993       H  0.66579240  0.97765912  0.64257848     0.18110
F1994       F  0.61860428  0.98307249  0.60386212    -0.19650
C1995       C  0.78993851  0.93297198  0.68624471    -0.21080
C1996       C  0.76080933  0.94455981  0.67407999    -0.09130
C1997       C  0.76169056  0.95678128  0.64048924     0.29730
C1998       C  0.79127329  0.95815291  0.62014491    -0.21080
C1999       C  0.82055597  0.94839231  0.63307073    -0.09140
C2000       C  0.81963594  0.93521002  0.66608149     0.29740
F2001       F  0.84786522  0.92579048  0.67919420    -0.19660
H2002       H  0.78998738  0.92314949  0.71171606     0.18100
H2003       H  0.79185791  0.96919537  0.59503830     0.18110
F2004       F  0.73481934  0.96999701  0.62788645    -0.19650
C2005       C  0.69613947  0.50775507  0.78920231    -0.21080
C2006       C  0.70674411  0.97639448  0.78176031    -0.09130
C2007       C  0.72201418  0.95752973  0.80593555     0.29730
C2008       C  0.72692912  0.96999319  0.83681069    -0.21080
C2009       C  0.71658179  0.50140083  0.84423441    -0.09140
C2010       C  0.70103462  0.52023650  0.82020516     0.29740
F2011       F  0.69140043  0.55097670  0.82645144    -0.19660
H2012       H  0.68470151  0.52282117  0.77073809     0.18100
H2013       H  0.73845123  0.95490073  0.85519854     0.18110
F2014       F  0.73168457  0.92677295  0.79981104    -0.19650
C2015       C  0.87436231  0.66347433  0.58673510    -0.21080
C2016       C  0.84101094  0.66151750  0.59967971    -0.09130
C2017       C  0.82576777  0.63023590  0.61138330     0.29730
C2018       C  0.84388071  0.60162800  0.60991429    -0.21080
C2019       C  0.87707484  0.60403656  0.59638647    -0.09140
C2020       C  0.89216383  0.63528300  0.58527925     0.29740
F2021       F  0.92428427  0.63849193  0.57251536    -0.19660
H2022       H  0.88669254  0.68699035  0.57697670     0.18100
H2023       H  0.83175057  0.57760282  0.61825190     0.18110
F2024       F  0.79365417  0.62735123  0.62423223    -0.19650
C2025       C  0.88620266  0.78284135  0.59238486    -0.21080
C2026       C  0.85232827  0.78314122  0.60377060    -0.09130
C2027       C  0.84045508  0.81276423  0.61502625     0.29730
C2028       C  0.86139279  0.84179712  0.61260420    -0.21080
C2029       C  0.89460023  0.84170135  0.59958200    -0.09140
C2030       C  0.90726088  0.81182644  0.59051678     0.29740
F2031       F  0.93906901  0.81126268  0.57725546    -0.19660
H2032       H  0.89604718  0.76054272  0.58318790     0.18100
H2033       H  0.85133267  0.86479737  0.61975389     0.18110
F2034       F  0.80851739  0.81388225  0.62770953    -0.19650
C2035       C  0.53957959  0.68570382  0.53469088    -0.21080
C2036       C  0.57181915  0.68544122  0.51877990    -0.09130
C2037       C  0.58191625  0.65573502  0.50600938     0.29730
C2038       C  0.56107646  0.62666656  0.51112293    -0.21080
C2039       C  0.52961681  0.62682784  0.52827805    -0.09140
C2040       C  0.51857232  0.65670225  0.53922939     0.29740
F2041       F  0.98864964  0.65733459  0.55656303    -0.19660
H2042       H  0.53119668  0.70797056  0.54529443     0.18100
H2043       H  0.56989710  0.60366326  0.50255622     0.18110
F2044       F  0.61210074  0.65458172  0.98918073    -0.19650
C2045       C  0.59498583  0.83579019  0.00449886    -0.21080
C2046       C  0.58598975  0.80660700  0.52461733    -0.09130
C2047       C  0.55920278  0.80628700  0.54874696     0.29730
C2048       C  0.54151545  0.83437671  0.55250785    -0.21080
C2049       C  0.54996164  0.86369070  0.53239126    -0.09140
C2050       C  0.57693693  0.86420772  0.50815425     0.29740
F2051       F  0.58621651  0.89214868  0.98854944    -0.19660
H2052       H  0.61557237  0.83636145  0.98573632     0.18100
H2053       H  0.52085491  0.83299190  0.57127565     0.18110
F2054       F  0.55017223  0.77862789  0.56892120    -0.19650
C2055       C  0.74162307  0.75364801  0.54300909    -0.21080
C2056       C  0.74578822  0.72949681  0.56866055    -0.09130
C2057       C  0.71786258  0.70908178  0.58183088     0.29730
C2058       C  0.68660881  0.71300780  0.56979026    -0.21080
C2059       C  0.68236311  0.73727484  0.54429813    -0.09140
C2060       C  0.71032102  0.75754932  0.53092553     0.29740
F2061       F  0.70756907  0.78064281  0.50568858    -0.19660
H2062       H  0.76275636  0.76941193  0.53207042     0.18100
H2063       H  0.66546633  0.69741193  0.58097596     0.18110
F2064       F  0.72046930  0.68612996  0.60722952    -0.19650
loop_ 
_geom_bond_atom_site_label_1 
_geom_bond_atom_site_label_2 
_geom_bond_distance 
_geom_bond_site_symmetry_2 
_ccdc_geom_bond_type 
C1            C6   1.400       .  A
C1          C260   1.405       .  A
C1          C498   1.478       .  S
C2            C3   1.411       .  A
C2          C259   1.405       .  A
C2            H7   1.083       .  S
C3            C4   1.408       .  A
C3          C253   1.492       .  S
C4          C263   1.407       .  A
C4            H8   1.083       .  S
C5            C6   1.399       .  A
C5          C262   1.407       .  A
C5          C488   1.488       .  S
C6            H9   1.084       .  S
C10          C11   1.408       .  A
C10          C15   1.402       .  A
C10         C210   1.487       .  S
C11          C12   1.412       .  A
C11          H16   1.083       .  S
C12          C13   1.409       .  A
C12         C250   1.492       .  S
C13          C14   1.406       .  A
C13          H17   1.082       .  S
C14          C15   1.397       .  A
C14         C220   1.488       .  S
C15          H18   1.084       .  S
C19          C20   1.407       .  A
C19          C24   1.401       .  A
C19         C183   1.480       .  S
C20          C21   1.409       .  A
C20          H25   1.083       .  S
C21          C22   1.407       .  A
C21         C200   1.483       .  S
C22          C23   1.407       .  A
C22          H26   1.083       .  S
C23          C24   1.396       .  A
C23         C190   1.488       .  S
C24          H27   1.084       .  S
C28          C29   1.400       .  A
C28          C33   1.404       .  A
C28         C170   1.473       .  S
C29          C30   1.402       .  A
C29          H34   1.084       .  S
C30          C31   1.407       .  A
C30         C160   1.483       .  S
C31          C32   1.405       .  A
C31          H35   1.084       .  S
C32          C33   1.407       .  A
C32         C203   1.483       .  S
C33          H36   1.084       .  S
C37          C38   1.406   1_455  A
C37          C42   1.401       .  A
C37         C130   1.483       .  S
C38          C39   1.410       .  A
C38          H43   1.083       .  S
C39          C40   1.407       .  A
C39        C1182   1.489       .  S
C40          C41   1.407   1_655  A
C40          H44   1.083       .  S
C41          C42   1.400       .  A
C41         C140   1.489       .  S
C42          H45   1.084       .  S
C46          C47   1.408       .  A
C46          C51   1.401       .  A
C46         C123   1.484       .  S
C47          C48   1.413       .  A
C47          H52   1.083       .  S
C48          C49   1.409       .  A
C48         C153   1.489       .  S
C49          C50   1.403       .  A
C49          H53   1.084       .  S
C50          C51   1.394       .  A
C50         C110   1.478       .  S
C51          H54   1.085       .  S
O55          C66   1.295       .  A
O55       Zr1123   2.460   1_455  S
O56          C67   1.295       .  A
O56         Zr90   2.462       .  S
O57          C68   1.294       .  A
O57       Zr1095   2.453   1_455  S
O58          C69   1.295       .  A
O58         Zr63   2.462       .  S
O59          C69   1.286       .  A
O59         Zr93   2.403       .  S
O60          C68   1.288       .  A
O60        Zr608   2.413       .  S
O61          C67   1.285       .  A
O61         Zr63   2.406       .  S
O62          C66   1.289       .  A
O62       Zr1095   2.416   1_455  S
Zr63       O1089   2.453       .  S
Zr63       O1094   2.416       .  S
Zr63         O64   2.325       .  S
Zr63         O73   2.341       .  S
Zr63         O71   2.345       .  S
Zr63       O1097   2.340       .  S
O64         Zr90   2.327       .  S
O64         Zr93   2.327       .  S
O65       Zr1095   2.340   1_455  S
O65       Zr1123   2.341   1_455  S
O65        Zr608   2.344       .  S
C66         C243   1.484       .  S
C67         C113   1.462       .  S
C68         C180   1.471       .  S
C69         C223   1.467       .  S
H70          O71   0.966       .  S
O71         Zr90   2.339       .  S
O71       Zr1640   2.340       .  S
H72          O73   0.966       .  S
O73         Zr91   2.344       .  S
O73         Zr93   2.345       .  S
O74          C97   1.294       .  A
O74        Zr606   2.456       .  S
O75         C614   1.296       .  A
O75        Zr349   2.463       .  S
O76        C1131   1.294   1_455  A
O76         Zr92   2.454       .  S
O77         C100   1.295       .  A
O77         Zr93   2.460       .  S
O78         C359   1.295       .  A
O78         Zr93   2.462   1_556  S
O79         C618   1.294       .  A
O79         Zr92   2.457       .  S
O80        C1135   1.295       .  A
O80         Zr94   2.461       .  S
O81         C104   1.297       .  A
O81         Zr94   2.466   1_556  S
O82         C103   1.288       .  A
O82         Zr92   2.417       .  S
O83         C620   1.288   1_554  A
O83         Zr93   2.413       .  S
O84          C99   1.290       .  A
O84        Zr606   2.422       .  S
O85         C102   1.288   1_556  A
O85       Zr1123   2.420   1_456  S
O86         C101   1.288       .  A
O86        Zr349   2.412       .  S
O87         C100   1.286       .  A
O87         Zr90   2.405       .  S
O88          C97   1.290       .  A
O88         Zr94   2.418       .  S
O89          C98   1.288       .  A
O89        Zr352   2.416       .  S
Zr90        O590   2.456       .  S
Zr90        O600   2.422       .  S
Zr90        O108   2.349       .  S
Zr90        O612   2.341       .  S
Zr91       O1087   2.460       .  S
Zr91        O333   2.463   1_554  S
Zr91       O1117   2.420   1_554  S
Zr91        O344   2.412   1_554  S
Zr91         O95   2.345       .  S
Zr91       O1097   2.341       .  S
Zr91        O622   2.328       .  S
Zr92        O576   2.413   1_545  S
Zr92        O581   2.344   1_545  S
Zr92       O1619   2.340   1_445  S
Zr92       O1128   2.344   1_455  S
Zr92       O1138   2.326   1_455  S
Zr93         O95   2.339       .  S
Zr93        O108   2.343       .  S
Zr94        O347   2.416   1_554  S
Zr94         O96   2.346       .  S
Zr94        O106   2.334       .  S
Zr94        O611   2.343   1_545  S
Zr94        O624   2.342       .  S
O95        Zr610   2.343       .  S
O96        Zr606   2.341       .  S
O96       Zr1124   2.344       .  S
C97         C213   1.472       .  S
C98         C143   1.467       .  S
C98         O591   1.296       .  A
C99         C133   1.478       .  S
C99        O1108   1.294       .  A
C100        C193   1.466       .  S
C101        C120   1.476       .  S
C101        O336   1.295       .  A
C102        C937   1.465   1_554  S
C102        O595   1.294       .  A
C103        C233   1.467       .  S
C103       O1112   1.295   1_455  A
C104        C431   1.491       .  S
C104        O599   1.288   1_546  A
H105       O1138   0.964   1_455  S
O106       Zr607   2.328   1_545  S
O106      Zr1124   2.326       .  S
O106       H1137   0.964       .  S
H107        O624   0.966       .  S
O108       Zr610   2.342       .  S
O108        H623   0.966       .  S
C109        C110   1.408       .  A
C109        C114   1.396       .  A
C109        H116   1.084       .  S
C110        C111   1.403       .  A
C111        C112   1.399       .  A
C111        F118   1.357       .  S
C112        C113   1.404       .  A
C112        H117   1.084       .  S
C113        C114   1.400       .  A
C114        F115   1.358       .  S
C119        C120   1.407       .  A
C119        C124   1.408       .  A
C119        H126   1.083       .  S
C120        C121   1.405       .  A
C121        C122   1.386       .  A
C121        F128   1.357       .  S
C122        C123   1.403       .  A
C122        H127   1.084       .  S
C123        C124   1.409       .  A
C124        F125   1.357       .  S
C129        C134   1.389       .  A
C129       C1162   1.403       .  A
C129        H136   1.084       .  S
C130        C131   1.408       .  A
C130       C1161   1.403   1_455  A
C131        C132   1.407       .  A
C131        F138   1.357       .  S
C132       C1165   1.407   1_455  A
C132        H137   1.083       .  S
C133        C134   1.406       .  A
C133       C1164   1.407       .  A
C134        F135   1.358       .  S
C139        C140   1.411   1_655  A
C139       C1176   1.397       .  A
C139        H146   1.083       .  S
C140        C141   1.408       .  A
C141       C1174   1.398       .  A
C141        F148   1.357       .  S
C142        C143   1.404       .  A
C142       C1173   1.398       .  A
C142        H147   1.084       .  S
C143        C144   1.398       .  A
C144       C1171   1.397       .  A
C144        F145   1.356       .  S
C149       C1182   1.406       .  A
C149       C1186   1.401       .  A
C149        H156   1.083   1_655  S
C150        C151   1.408       .  A
C150       C1181   1.406       .  A
C150       C1071   1.489       .  S
C151        C152   1.401       .  A
C151        F158   1.357       .  S
C152        C153   1.406       .  A
C152        H157   1.083       .  S
C153        C154   1.408       .  A
C154       C1181   1.401       .  A
C154       F1187   1.357       .  S
F155       C1186   1.357   1_455  S
C159        C160   1.403       .  A
C159        C164   1.398       .  A
C159        H166   1.083       .  S
C160        C677   1.411       .  A
C161        C162   1.399       .  A
C161        C676   1.411       .  A
C161        F168   1.358       .  S
C162        C679   1.399       .  A
C162        H167   1.084       .  S
C163        C164   1.405       .  A
C163        C678   1.399   1_545  A
C163        C876   1.465       .  S
C164        F165   1.358       .  S
C169        C170   1.396   1_565  A
C169        C690   1.392       .  A
C169        H692   1.084       .  S
C170        C171   1.404       .  A
C171        C172   1.405       .  A
C171        F178   1.357       .  S
C172        C173   1.409       .  A
C172        H177   1.083       .  S
C173        C690   1.416   1_545  A
C173        C362   1.491       .  S
C174        C685   1.392       .  A
C174        C689   1.416       .  A
C174        F175   1.358       .  S
H176        C685   1.084       .  S
C179        C180   1.406       .  A
C179        C184   1.406       .  A
C179        H186   1.083       .  S
C180        C181   1.403       .  A
C181        C182   1.386       .  A
C181        F188   1.359       .  S
C182        C183   1.404       .  A
C182        H187   1.083       .  S
C183        C184   1.407       .  A
C184        F185   1.357       .  S
C189        C190   1.403       .  A
C189        C194   1.396       .  A
C189        H196   1.083       .  S
C190        C191   1.416       .  A
C191        C192   1.397       .  A
C191        F198   1.357       .  S
C192        C193   1.396       .  A
C192        H197   1.084       .  S
C193        C194   1.406       .  A
C194        F195   1.357       .  S
C199        C204   1.403       .  A
C199        C716   1.405   1_545  A
C199        H206   1.083       .  S
C200        C201   1.406       .  A
C200        C715   1.405       .  A
C201        C202   1.398       .  A
C201        F208   1.357       .  S
C202        C719   1.404       .  A
C202        H207   1.083       .  S
C203        C204   1.407       .  A
C203        C718   1.404   1_545  A
C204        F205   1.357       .  S
C209        C210   1.405       .  A
C209        C214   1.386       .  A
C209        H216   1.083       .  S
C210        C211   1.410       .  A
C211        C212   1.408       .  A
C211        F218   1.357       .  S
C212        C213   1.406       .  A
C212        H217   1.083       .  S
C213        C214   1.401       .  A
C214        F215   1.356       .  S
C219        C220   1.412       .  A
C219        C224   1.398       .  A
C219        H226   1.083       .  S
C220        C221   1.406       .  A
C221        C222   1.396       .  A
C221        F228   1.357       .  S
C222        C223   1.405       .  A
C222        H227   1.084       .  S
C223        C224   1.399       .  A
C224        F225   1.358       .  S
C229        C230   1.411       .  A
C229        C234   1.397       .  A
C229        H236   1.083       .  S
C230        C231   1.407       .  A
C230        C263   1.488       .  S
C231        C232   1.397       .  A
C231        F496   1.357   1_554  S
C232        C233   1.403       .  A
C232        H237   1.083       .  S
C233        C234   1.399       .  A
C234       F1267   1.355   1_455  S
F235       C1266   1.355       .  S
F238        C489   1.357       .  S
C239        C498   1.405       .  A
C239        C502   1.408       .  A
C239        H246   1.083       .  S
C240        C241   1.403       .  A
C240        C497   1.405       .  A
C240        C259   1.478       .  S
C241        C242   1.389       .  A
C241        F248   1.358       .  S
C242        C243   1.406       .  A
C242        H247   1.083       .  S
C243        C244   1.411       .  A
C244        C497   1.408       .  A
C244        F503   1.357   1_554  S
F245        C502   1.357       .  S
C249        C250   1.408       .  A
C249        C254   1.402       .  A
C249        H256   1.083       .  S
C250        C251   1.407       .  A
C251        C252   1.400       .  A
C251        F258   1.357       .  S
C252        C253   1.408       .  A
C252        H257   1.083       .  S
C253        C254   1.407       .  A
C254        F255   1.357       .  S
C259        C264   1.400       .  A
C260        C261   1.411       .  A
C260        H265   1.083       .  S
C261        C262   1.408       .  A
C261        C511   1.492       .  S
C262        H266   1.083       .  S
C263        C264   1.399       .  A
C264        H267   1.084       .  S
C268        C269   1.408       .  A
C268        C273   1.402       .  A
C268        C468   1.487       .  S
C269        C270   1.412       .  A
C269        H274   1.083       .  S
C270        C271   1.409       .  A
C270        C508   1.492       .  S
C271        C272   1.406       .  A
C271        H275   1.082       .  S
C272        C273   1.397       .  A
C272        C478   1.488       .  S
C273        H276   1.084       .  S
C277        C278   1.407       .  A
C277        C282   1.401       .  A
C277        C441   1.480       .  S
C278        C279   1.409       .  A
C278        H283   1.083       .  S
C279        C280   1.407       .  A
C279        C458   1.483       .  S
C280        C281   1.407       .  A
C280        H284   1.083       .  S
C281        C282   1.396       .  A
C281        C448   1.488       .  S
C282        H285   1.084       .  S
C286        C287   1.400       .  A
C286        C291   1.404       .  A
C286        C428   1.473       .  S
C287        C288   1.402       .  A
C287        H292   1.084       .  S
C288        C289   1.407       .  A
C288        C418   1.483       .  S
C289        C290   1.405       .  A
C289        H293   1.084       .  S
C290        C291   1.407       .  A
C290        C461   1.483       .  S
C291        H294   1.084       .  S
C295        C296   1.406   1_455  A
C295        C300   1.401       .  A
C295        C388   1.483       .  S
C296        C297   1.410       .  A
C296        H301   1.083       .  S
C297        C298   1.407       .  A
C297       C1440   1.489       .  S
C298        C299   1.407   1_655  A
C298        H302   1.083       .  S
C299        C300   1.400       .  A
C299        C398   1.489       .  S
C300        H303   1.084       .  S
C304        C305   1.408       .  A
C304        C309   1.401       .  A
C304        C381   1.484       .  S
C305        C306   1.413       .  A
C305        H310   1.083       .  S
C306        C307   1.409       .  A
C306        C411   1.489       .  S
C307        C308   1.403       .  A
C307        H311   1.084       .  S
C308        C309   1.394       .  A
C308        C368   1.478       .  S
C309        H312   1.085       .  S
O313        C324   1.295       .  A
O313      Zr1381   2.460   1_455  S
O314        C325   1.295       .  A
O314       Zr348   2.462       .  S
O315        C326   1.294       .  A
O315      Zr1353   2.453   1_455  S
O316        C327   1.295       .  A
O316       Zr321   2.462       .  S
O317        C327   1.286       .  A
O317       Zr351   2.403       .  S
O318        C326   1.288       .  A
O318       Zr866   2.413       .  S
O319        C325   1.285       .  A
O319       Zr321   2.406       .  S
O320        C324   1.289       .  A
O320      Zr1353   2.416   1_455  S
Zr321      O1347   2.453       .  S
Zr321      O1352   2.416       .  S
Zr321       O322   2.325       .  S
Zr321      O1355   2.340       .  S
Zr321       O331   2.341       .  S
Zr321       O329   2.345       .  S
O322       Zr348   2.327       .  S
O322       Zr351   2.327       .  S
O323      Zr1353   2.340   1_455  S
O323      Zr1381   2.341   1_455  S
O323       Zr866   2.344       .  S
C324        C501   1.484       .  S
C325        C371   1.462       .  S
C326        C438   1.471       .  S
C327        C481   1.467       .  S
H328        O329   0.966       .  S
O329       Zr348   2.339       .  S
O329      Zr1898   2.340       .  S
H330        O331   0.966       .  S
O331       Zr349   2.344       .  S
O331       Zr351   2.345       .  S
O332        C355   1.294       .  A
O332       Zr864   2.456       .  S
O333        C872   1.296       .  A
O334       C1389   1.294   1_455  A
O334       Zr350   2.454       .  S
O335        C358   1.295       .  A
O335       Zr351   2.460       .  S
O336       Zr351   2.462       .  S
O337        C876   1.294       .  A
O337       Zr350   2.457       .  S
O338       C1393   1.295       .  A
O338       Zr352   2.461       .  S
O339        C362   1.297       .  A
O339       Zr352   2.466       .  S
O340        C361   1.288       .  A
O340       Zr350   2.417       .  S
O341        C878   1.288       .  A
O341       Zr351   2.413       .  S
O342        C357   1.290       .  A
O342       Zr864   2.422       .  S
O343        C360   1.288       .  A
O343      Zr1381   2.420   1_455  S
O344        C359   1.288       .  A
O345        C358   1.286       .  A
O345       Zr348   2.405       .  S
O346        C355   1.290       .  A
O346       Zr352   2.418       .  S
O347        C356   1.288       .  A
Zr348       O848   2.456       .  S
Zr348       O858   2.422       .  S
Zr348       O870   2.341       .  S
Zr348       O366   2.349       .  S
Zr349      O1345   2.460       .  S
Zr349      O1375   2.420       .  S
Zr349      O1355   2.341       .  S
Zr349       O353   2.345       .  S
Zr349       O880   2.328       .  S
Zr350       O834   2.413   1_545  S
Zr350       O839   2.344   1_545  S
Zr350      O1877   2.340   1_445  S
Zr350      O1386   2.344   1_455  S
Zr350      O1396   2.326   1_455  S
Zr351       O353   2.339       .  S
Zr351       O366   2.343       .  S
Zr352       O869   2.343   1_545  S
Zr352       O354   2.346       .  S
Zr352       O882   2.342       .  S
Zr352       O364   2.334       .  S
O353       Zr868   2.343       .  S
O354       Zr864   2.341       .  S
O354      Zr1382   2.344       .  S
C355        C471   1.472       .  S
C356        C401   1.467       .  S
C356        O849   1.296       .  A
C357        C391   1.478       .  S
C357       O1366   1.294       .  A
C358        C451   1.466       .  S
C359        C378   1.476       .  S
C360        C679   1.465       .  S
C360        O853   1.294       .  A
C361        C491   1.467       .  S
C361       O1370   1.295   1_455  A
C362        O857   1.288   1_545  A
H363       O1396   0.964   1_455  S
O364       Zr865   2.328   1_545  S
O364      Zr1382   2.326       .  S
O364       H1395   0.964       .  S
H365        O882   0.966       .  S
O366       Zr868   2.342       .  S
O366        H881   0.966       .  S
C367        C368   1.408       .  A
C367        C372   1.396       .  A
C367        H374   1.084       .  S
C368        C369   1.403       .  A
C369        C370   1.399       .  A
C369        F376   1.357       .  S
C370        C371   1.405       .  A
C370        H375   1.084       .  S
C371        C372   1.400       .  A
C372        F373   1.358       .  S
C377        C378   1.407       .  A
C377        C382   1.408       .  A
C377        H384   1.083       .  S
C378        C379   1.405       .  A
C379        C380   1.386       .  A
C379        F386   1.357       .  S
C380        C381   1.403       .  A
C380        H385   1.084       .  S
C381        C382   1.409       .  A
C382        F383   1.357       .  S
C387       C1420   1.403       .  A
C387        C392   1.389       .  A
C387        H394   1.084       .  S
C388       C1419   1.403   1_455  A
C388        C389   1.408       .  A
C389        C390   1.407       .  A
C389        F396   1.357       .  S
C390       C1423   1.407   1_455  A
C390        H395   1.083       .  S
C391       C1422   1.407       .  A
C391        C392   1.406       .  A
C392        F393   1.358       .  S
C397        C398   1.411   1_655  A
C397       C1434   1.397       .  A
C397        H404   1.083       .  S
C398        C399   1.408       .  A
C399       C1432   1.398       .  A
C399        F406   1.357       .  S
C400       C1431   1.398       .  A
C400        C401   1.404       .  A
C400        H405   1.084       .  S
C401        C402   1.398       .  A
C402       C1429   1.397       .  A
C402        F403   1.356       .  S
C407       C1440   1.406       .  A
C407       C1444   1.401       .  A
C407        H414   1.083   1_655  S
C408       C1439   1.406       .  A
C408        C409   1.408       .  A
C408       C1329   1.489       .  S
C409        C410   1.401       .  A
C409        F416   1.357       .  S
C410        C411   1.406       .  A
C410        H415   1.083       .  S
C411        C412   1.408       .  A
C412       C1439   1.401       .  A
C412       F1445   1.357       .  S
F413       C1444   1.357   1_455  S
C417        C418   1.403       .  A
C417        C422   1.398       .  A
C417        H424   1.083       .  S
C418        C935   1.411       .  A
C419        C934   1.411       .  A
C419        C420   1.399   1_556  A
C419        F426   1.358       .  S
C420        C937   1.399   1_554  A
C420        H425   1.084       .  S
C421        C936   1.399   1_546  A
C421        C422   1.405       .  A
C421        C618   1.465   1_556  S
C422        F423   1.358       .  S
C427        C428   1.396   1_565  A
C427        C948   1.392       .  A
C427        H950   1.084       .  S
C428        C429   1.404       .  A
C429        C430   1.405       .  A
C429        F436   1.357       .  S
C430        C431   1.409       .  A
C430        H435   1.083       .  S
C431        C948   1.416   1_545  A
C432        C943   1.392       .  A
C432        C947   1.416       .  A
C432        F433   1.358       .  S
H434        C943   1.084       .  S
C437        C438   1.406       .  A
C437        C442   1.406       .  A
C437        H444   1.083       .  S
C438        C439   1.403       .  A
C439        C440   1.386       .  A
C439        F446   1.359       .  S
C440        C441   1.404       .  A
C440        H445   1.083       .  S
C441        C442   1.407       .  A
C442        F443   1.357       .  S
C447        C448   1.403       .  A
C447        C452   1.396       .  A
C447        H454   1.083       .  S
C448        C449   1.416       .  A
C449        C450   1.397       .  A
C449        F456   1.357       .  S
C450        C451   1.396       .  A
C450        H455   1.084       .  S
C451        C452   1.406       .  A
C452        F453   1.357       .  S
C457        C974   1.405   1_545  A
C457        C462   1.403       .  A
C457        H464   1.083       .  S
C458        C973   1.405       .  A
C458        C459   1.406       .  A
C459        C460   1.398       .  A
C459        F466   1.357       .  S
C460        C977   1.404       .  A
C460        H465   1.083       .  S
C461        C976   1.404   1_545  A
C461        C462   1.407       .  A
C462        F463   1.357       .  S
C467        C468   1.405       .  A
C467        C472   1.386       .  A
C467        H474   1.083       .  S
C468        C469   1.410       .  A
C469        C470   1.408       .  A
C469        F476   1.357       .  S
C470        C471   1.406       .  A
C470        H475   1.083       .  S
C471        C472   1.401       .  A
C472        F473   1.356       .  S
C477        C478   1.412       .  A
C477        C482   1.398       .  A
C477        H484   1.083       .  S
C478        C479   1.406       .  A
C479        C480   1.396       .  A
C479        F486   1.357       .  S
C480        C481   1.405       .  A
C480        H485   1.084       .  S
C481        C482   1.399       .  A
C482        F483   1.358       .  S
C487        C488   1.411       .  A
C487        C492   1.397       .  A
C487        H494   1.083       .  S
C488        C489   1.407       .  A
C489        C490   1.397       .  A
C490        C491   1.403       .  A
C490        H495   1.083       .  S
C491        C492   1.399       .  A
C492       F1525   1.355   1_455  S
F493       C1524   1.355       .  S
C497        H504   1.083   1_554  S
C498        C499   1.403       .  A
C499        C500   1.389       .  A
C499        F506   1.358       .  S
C500        C501   1.406       .  A
C500        H505   1.083       .  S
C501        C502   1.411       .  A
C507        C508   1.408       .  A
C507        C512   1.402       .  A
C507        H514   1.083       .  S
C508        C509   1.407       .  A
C509        C510   1.400       .  A
C509        F516   1.357       .  S
C510        C511   1.408       .  A
C510        H515   1.083       .  S
C511        C512   1.407       .  A
C512        F513   1.357       .  S
C517        C776   1.405       .  A
C517        C522   1.400       .  A
C517       C1014   1.478       .  S
C518        C775   1.405       .  A
C518        C519   1.411       .  A
C518        H523   1.083       .  S
C519        C520   1.408       .  A
C519        C769   1.492       .  S
C520        C779   1.407       .  A
C520        H524   1.083       .  S
C521        C778   1.407       .  A
C521        C522   1.399       .  A
C521       C1004   1.488       .  S
C522        H525   1.084       .  S
C526        C527   1.408       .  A
C526        C531   1.402       .  A
C526        C726   1.487       .  S
C527        C528   1.412       .  A
C527        H532   1.083       .  S
C528        C529   1.409       .  A
C528        C766   1.492       .  S
C529        C530   1.406       .  A
C529        H533   1.082       .  S
C530        C531   1.397       .  A
C530        C736   1.488       .  S
C531        H534   1.084       .  S
C535        C536   1.407       .  A
C535        C540   1.401       .  A
C535        C699   1.480       .  S
C536        C537   1.409       .  A
C536        H541   1.083       .  S
C537        C538   1.407       .  A
C537        C716   1.483       .  S
C538        C539   1.407       .  A
C538        H542   1.083       .  S
C539        C540   1.396       .  A
C539        C706   1.488       .  S
C540        H543   1.084       .  S
C544        C545   1.400       .  A
C544        C549   1.404       .  A
C544        C686   1.473       .  S
C545        C546   1.402       .  A
C545        H550   1.084       .  S
C546        C547   1.407       .  A
C546        C676   1.483       .  S
C547        C548   1.405       .  A
C547        H551   1.084       .  S
C548        C549   1.407       .  A
C548        C719   1.483       .  S
C549        H552   1.084       .  S
C553        C554   1.406   1_455  A
C553        C558   1.401       .  A
C553        C646   1.483       .  S
C554        C555   1.410       .  A
C554        H559   1.083       .  S
C555        C556   1.407       .  A
C555       C1698   1.489       .  S
C556        C557   1.407   1_655  A
C556        H560   1.083       .  S
C557        C558   1.400       .  A
C557        C656   1.489       .  S
C558        H561   1.084       .  S
C562        C563   1.408       .  A
C562        C567   1.401       .  A
C562        C639   1.484       .  S
C563        C564   1.413       .  A
C563        H568   1.083       .  S
C564        C565   1.409       .  A
C564        C669   1.489       .  S
C565        C566   1.403       .  A
C565        H569   1.084       .  S
C566        C567   1.394       .  A
C566        C626   1.478       .  S
C567        H570   1.085       .  S
O571        C582   1.295       .  A
O571      Zr1639   2.460   1_455  S
O572        C583   1.295       .  A
O572       Zr606   2.462   1_565  S
O573        C584   1.294       .  A
O573      Zr1611   2.453   1_455  S
O574        C585   1.295       .  A
O574       Zr579   2.462       .  S
O575        C585   1.286       .  A
O575       Zr609   2.403       .  S
O576        C584   1.288       .  A
O577        C583   1.285       .  A
O577       Zr579   2.406       .  S
O578        C582   1.289       .  A
O578      Zr1611   2.416   1_455  S
Zr579      O1605   2.453       .  S
Zr579      O1610   2.416       .  S
Zr579       O580   2.325       .  S
Zr579      O1613   2.340       .  S
Zr579       O589   2.341       .  S
Zr579       O587   2.345       .  S
O580       Zr606   2.327   1_565  S
O580       Zr609   2.327       .  S
O581      Zr1611   2.340   1_455  S
O581      Zr1639   2.341   1_455  S
C582        C759   1.484       .  S
C583        C629   1.462       .  S
C584        C696   1.471       .  S
C585        C739   1.467       .  S
H586        O587   0.966       .  S
O587       Zr606   2.339   1_565  S
O587      Zr1124   2.340   1_565  S
H588        O589   0.966       .  S
O589       Zr607   2.344       .  S
O589       Zr609   2.345       .  S
O590        C613   1.294       .  A
O591       Zr865   2.463   1_545  S
O592       C1647   1.294   1_455  A
O592       Zr608   2.454       .  S
O593        C616   1.295       .  A
O593       Zr609   2.460       .  S
O594        C875   1.295       .  A
O594       Zr609   2.462   1_556  S
O595       Zr608   2.457       .  S
O596       C1651   1.295       .  A
O596       Zr610   2.461       .  S
O597        C620   1.297       .  A
O597       Zr610   2.466   1_556  S
O598        C619   1.288       .  A
O598       Zr608   2.417       .  S
O599       Zr609   2.413       .  S
O600        C615   1.290       .  A
O601        C618   1.288   1_566  A
O601      Zr1639   2.420   1_456  S
O602        C617   1.288       .  A
O602       Zr865   2.412       .  S
O603        C616   1.286       .  A
O603       Zr606   2.405   1_565  S
O604        C613   1.290       .  A
O604       Zr610   2.418       .  S
O605        C614   1.288       .  A
O605       Zr868   2.416       .  S
Zr606       O624   2.349       .  S
Zr607      O1603   2.460       .  S
Zr607       O849   2.463   1_564  S
Zr607      O1633   2.420   1_554  S
Zr607       O860   2.412   1_554  S
Zr607      O1613   2.341       .  S
Zr607       O611   2.345       .  S
Zr608      O1103   2.340   1_455  S
Zr608      O1644   2.344   1_455  S
Zr608      O1654   2.326   1_455  S
Zr609       O611   2.339       .  S
Zr609       O624   2.343   1_565  S
Zr610       O863   2.416   1_554  S
Zr610       O612   2.346       .  S
Zr610       O622   2.334       .  S
O612      Zr1640   2.344       .  S
C613        C729   1.472       .  S
C614        C659   1.467       .  S
C615        C649   1.478       .  S
C615       O1624   1.294       .  A
C616        C709   1.466       .  S
C617        C636   1.476       .  S
C617        O852   1.295       .  A
C619        C749   1.467       .  S
C619       O1628   1.295   1_455  A
C620        C947   1.491       .  S
H621       O1654   0.964   1_455  S
O622      Zr1640   2.326       .  S
O622       H1653   0.964       .  S
C625        C626   1.408       .  A
C625        C630   1.396       .  A
C625        H632   1.084       .  S
C626        C627   1.403       .  A
C627        C628   1.399       .  A
C627        F634   1.357       .  S
C628        C629   1.404       .  A
C628        H633   1.084       .  S
C629        C630   1.400       .  A
C630        F631   1.358       .  S
C635        C636   1.407       .  A
C635        C640   1.408       .  A
C635        H642   1.083       .  S
C636        C637   1.405       .  A
C637        C638   1.386       .  A
C637        F644   1.357       .  S
C638        C639   1.403       .  A
C638        H643   1.084       .  S
C639        C640   1.409       .  A
C640        F641   1.357       .  S
C645       C1678   1.403       .  A
C645        C650   1.389       .  A
C645        H652   1.084       .  S
C646       C1677   1.403   1_455  A
C646        C647   1.408       .  A
C647        C648   1.407       .  A
C647        F654   1.357       .  S
C648       C1681   1.407   1_455  A
C648        H653   1.083       .  S
C649       C1680   1.407       .  A
C649        C650   1.406       .  A
C650        F651   1.358       .  S
C655        C656   1.411   1_655  A
C655       C1692   1.397       .  A
C655        H662   1.083       .  S
C656        C657   1.408       .  A
C657       C1690   1.398       .  A
C657        F664   1.357       .  S
C658       C1689   1.398       .  A
C658        C659   1.404       .  A
C658        H663   1.084       .  S
C659        C660   1.398       .  A
C660       C1687   1.397       .  A
C660        F661   1.356       .  S
C665       C1698   1.406       .  A
C665       C1702   1.401       .  A
C665        H672   1.083   1_655  S
C666       C1697   1.406       .  A
C666        C667   1.408       .  A
C666       C1587   1.489       .  S
C667        C668   1.401       .  A
C667        F674   1.357       .  S
C668        C669   1.406       .  A
C668        H673   1.083       .  S
C669        C670   1.408       .  A
C670       C1697   1.401       .  A
C670       F1703   1.357       .  S
F671       C1702   1.357   1_455  S
C675        C676   1.403       .  A
C675        C680   1.398       .  A
C675        H682   1.083       .  S
C677        C678   1.399   1_545  A
C677        F684   1.358   1_545  S
C678        H683   1.084       .  S
C679        C680   1.405       .  A
C680        F681   1.358       .  S
C685        C686   1.396       .  A
C686        C687   1.404       .  A
C687        C688   1.405       .  A
C687        F694   1.357       .  S
C688        C689   1.409       .  A
C688        H693   1.083       .  S
C689        C878   1.491       .  S
C690        F691   1.358       .  S
C695        C696   1.406       .  A
C695        C700   1.406       .  A
C695        H702   1.083       .  S
C696        C697   1.403       .  A
C697        C698   1.386       .  A
C697        F704   1.359       .  S
C698        C699   1.404       .  A
C698        H703   1.083       .  S
C699        C700   1.407       .  A
C700        F701   1.357       .  S
C705        C706   1.403       .  A
C705        C710   1.396       .  A
C705        H712   1.083       .  S
C706        C707   1.416       .  A
C707        C708   1.397       .  A
C707        F714   1.357       .  S
C708        C709   1.396       .  A
C708        H713   1.084       .  S
C709        C710   1.406       .  A
C710        F711   1.357       .  S
C715        C720   1.403       .  A
C715        H722   1.083       .  S
C716        C717   1.406       .  A
C717        C718   1.398       .  A
C717        F724   1.357       .  S
C718        H723   1.083       .  S
C719        C720   1.407       .  A
C720        F721   1.357       .  S
C725        C726   1.405       .  A
C725        C730   1.386       .  A
C725        H732   1.083       .  S
C726        C727   1.410       .  A
C727        C728   1.408       .  A
C727        F734   1.357       .  S
C728        C729   1.406       .  A
C728        H733   1.083       .  S
C729        C730   1.401       .  A
C730        F731   1.356       .  S
C735        C736   1.412       .  A
C735        C740   1.398       .  A
C735        H742   1.083       .  S
C736        C737   1.406       .  A
C737        C738   1.396       .  A
C737        F744   1.357       .  S
C738        C739   1.405       .  A
C738        H743   1.084       .  S
C739        C740   1.399       .  A
C740        F741   1.358       .  S
C745        C746   1.411       .  A
C745        C750   1.397       .  A
C745        H752   1.083       .  S
C746        C747   1.407       .  A
C746        C779   1.488       .  S
C747        C748   1.397       .  A
C747       F1012   1.357   1_554  S
C748        C749   1.403       .  A
C748        H753   1.083       .  S
C749        C750   1.399       .  A
C750       F1783   1.355   1_455  S
F751       C1782   1.355       .  S
F754       C1005   1.357       .  S
C755       C1014   1.405       .  A
C755       C1018   1.408       .  A
C755        H762   1.083       .  S
C756       C1013   1.405       .  A
C756        C757   1.403       .  A
C756        C775   1.478       .  S
C757        C758   1.389       .  A
C757        F764   1.358       .  S
C758        C759   1.406       .  A
C758        H763   1.083       .  S
C759        C760   1.411       .  A
C760       C1013   1.408       .  A
C760       F1019   1.357   1_554  S
F761       C1018   1.357       .  S
C765        C766   1.408       .  A
C765        C770   1.402       .  A
C765        H772   1.083       .  S
C766        C767   1.407       .  A
C767        C768   1.400       .  A
C767        F774   1.357       .  S
C768        C769   1.408       .  A
C768        H773   1.083       .  S
C769        C770   1.407       .  A
C770        F771   1.357       .  S
C775        C780   1.400       .  A
C776        C777   1.411       .  A
C776        H781   1.083       .  S
C777        C778   1.408       .  A
C777       C1027   1.492       .  S
C778        H782   1.083       .  S
C779        C780   1.399       .  A
C780        H783   1.084       .  S
C784        C785   1.408       .  A
C784        C789   1.402       .  A
C784        C984   1.487       .  S
C785        C786   1.412       .  A
C785        H790   1.083       .  S
C786        C787   1.409       .  A
C786       C1024   1.492       .  S
C787        C788   1.406       .  A
C787        H791   1.082       .  S
C788        C789   1.397       .  A
C788        C994   1.488       .  S
C789        H792   1.084       .  S
C793        C794   1.407       .  A
C793        C798   1.401       .  A
C793        C957   1.480       .  S
C794        C795   1.409       .  A
C794        H799   1.083       .  S
C795        C796   1.407       .  A
C795        C974   1.483       .  S
C796        C797   1.407       .  A
C796        H800   1.083       .  S
C797        C798   1.396       .  A
C797        C964   1.488       .  S
C798        H801   1.084       .  S
C802        C803   1.400       .  A
C802        C807   1.404       .  A
C802        C944   1.473       .  S
C803        C804   1.402       .  A
C803        H808   1.084       .  S
C804        C805   1.407       .  A
C804        C934   1.483       .  S
C805        C806   1.405       .  A
C805        H809   1.084       .  S
C806        C807   1.407       .  A
C806        C977   1.483       .  S
C807        H810   1.084       .  S
C811        C812   1.406   1_455  A
C811        C816   1.401       .  A
C811        C904   1.483       .  S
C812        C813   1.410       .  A
C812        H817   1.083       .  S
C813        C814   1.407       .  A
C813       C1956   1.489       .  S
C814        C815   1.407   1_655  A
C814        H818   1.083       .  S
C815        C816   1.400       .  A
C815        C914   1.489       .  S
C816        H819   1.084       .  S
C820        C821   1.408       .  A
C820        C825   1.401       .  A
C820        C897   1.484       .  S
C821        C822   1.413       .  A
C821        H826   1.083       .  S
C822        C823   1.409       .  A
C822        C927   1.489       .  S
C823        C824   1.403       .  A
C823        H827   1.084       .  S
C824        C825   1.394       .  A
C824        C884   1.478       .  S
C825        H828   1.085       .  S
O829        C840   1.295       .  A
O829      Zr1897   2.460   1_455  S
O830        C841   1.295       .  A
O830       Zr864   2.462   1_565  S
O831        C842   1.294       .  A
O831      Zr1869   2.453   1_455  S
O832        C843   1.295       .  A
O832       Zr837   2.462       .  S
O833        C843   1.286       .  A
O833       Zr867   2.403       .  S
O834        C842   1.288       .  A
O835        C841   1.285       .  A
O835       Zr837   2.406       .  S
O836        C840   1.289       .  A
O836      Zr1869   2.416   1_455  S
Zr837      O1863   2.453       .  S
Zr837      O1868   2.416       .  S
Zr837       O838   2.325       .  S
Zr837      O1871   2.340       .  S
Zr837       O847   2.341       .  S
Zr837       O845   2.345       .  S
O838       Zr864   2.327   1_565  S
O838       Zr867   2.327       .  S
O839      Zr1869   2.340   1_455  S
O839      Zr1897   2.341   1_455  S
C840       C1017   1.484       .  S
C841        C887   1.462       .  S
C842        C954   1.471       .  S
C843        C997   1.467       .  S
H844        O845   0.966       .  S
O845       Zr864   2.339   1_565  S
O845      Zr1382   2.340   1_565  S
H846        O847   0.966       .  S
O847       Zr865   2.344       .  S
O847       Zr867   2.345       .  S
O848        C871   1.294       .  A
O850       C1905   1.294   1_455  A
O850       Zr866   2.454       .  S
O851        C874   1.295       .  A
O851       Zr867   2.460       .  S
O852       Zr867   2.462       .  S
O853       Zr866   2.457       .  S
O854       C1909   1.295       .  A
O854       Zr868   2.461       .  S
O855        C878   1.297       .  A
O855       Zr868   2.466       .  S
O856        C877   1.288       .  A
O856       Zr866   2.417       .  S
O857       Zr867   2.413       .  S
O858        C873   1.290       .  A
O859        C876   1.288   1_565  A
O859      Zr1897   2.420   1_455  S
O860        C875   1.288       .  A
O861        C874   1.286       .  A
O861       Zr864   2.405   1_565  S
O862        C871   1.290       .  A
O862       Zr868   2.418       .  S
O863        C872   1.288       .  A
Zr864       O882   2.349       .  S
Zr865      O1861   2.460       .  S
Zr865      O1891   2.420       .  S
Zr865      O1871   2.341       .  S
Zr865       O869   2.345       .  S
Zr866      O1361   2.340   1_455  S
Zr866      O1902   2.344   1_455  S
Zr866      O1912   2.326   1_455  S
Zr867       O869   2.339       .  S
Zr867       O882   2.343   1_565  S
Zr868       O870   2.346       .  S
Zr868       O880   2.334       .  S
O870      Zr1898   2.344       .  S
C871        C987   1.472       .  S
C872        C917   1.467       .  S
C873        C907   1.478       .  S
C873       O1882   1.294       .  A
C874        C967   1.466       .  S
C875        C894   1.476       .  S
C877       C1007   1.467       .  S
C877       O1886   1.295   1_455  A
H879       O1912   0.964   1_455  S
O880      Zr1898   2.326       .  S
O880       H1911   0.964       .  S
C883        C884   1.408       .  A
C883        C888   1.396       .  A
C883        H890   1.084       .  S
C884        C885   1.403       .  A
C885        C886   1.399       .  A
C885        F892   1.357       .  S
C886        C887   1.405       .  A
C886        H891   1.084       .  S
C887        C888   1.400       .  A
C888        F889   1.358       .  S
C893        C894   1.407       .  A
C893        C898   1.408       .  A
C893        H900   1.083       .  S
C894        C895   1.405       .  A
C895        C896   1.386       .  A
C895        F902   1.357       .  S
C896        C897   1.403       .  A
C896        H901   1.084       .  S
C897        C898   1.409       .  A
C898        F899   1.357       .  S
C903       C1936   1.403       .  A
C903        C908   1.389       .  A
C903        H910   1.084       .  S
C904       C1935   1.403   1_455  A
C904        C905   1.408       .  A
C905        C906   1.407       .  A
C905        F912   1.357       .  S
C906       C1939   1.407   1_455  A
C906        H911   1.083       .  S
C907       C1938   1.407       .  A
C907        C908   1.406       .  A
C908        F909   1.358       .  S
C913        C914   1.411   1_655  A
C913       C1950   1.397       .  A
C913        H920   1.083       .  S
C914        C915   1.408       .  A
C915       C1948   1.398       .  A
C915        F922   1.357       .  S
C916       C1947   1.398       .  A
C916        C917   1.404       .  A
C916        H921   1.084       .  S
C917        C918   1.398       .  A
C918       C1945   1.397       .  A
C918        F919   1.356       .  S
C923       C1956   1.406       .  A
C923       C1960   1.401       .  A
C923        H930   1.083   1_655  S
C924       C1955   1.406       .  A
C924        C925   1.408       .  A
C924       C1845   1.489       .  S
C925        C926   1.401       .  A
C925        F932   1.357       .  S
C926        C927   1.406       .  A
C926        H931   1.083       .  S
C927        C928   1.408       .  A
C928       C1955   1.401       .  A
C928       F1961   1.357       .  S
F929       C1960   1.357   1_455  S
C933        C934   1.403       .  A
C933        C938   1.398       .  A
C933        H940   1.083       .  S
C935        C936   1.399   1_546  A
C935        F942   1.358   1_545  S
C936        H941   1.084       .  S
C937        C938   1.405       .  A
C938        F939   1.358       .  S
C943        C944   1.396       .  A
C944        C945   1.404       .  A
C945        C946   1.405       .  A
C945        F952   1.357       .  S
C946        C947   1.409       .  A
C946        H951   1.083       .  S
C948        F949   1.358       .  S
C953        C954   1.406       .  A
C953        C958   1.406       .  A
C953        H960   1.083       .  S
C954        C955   1.403       .  A
C955        C956   1.386       .  A
C955        F962   1.359       .  S
C956        C957   1.404       .  A
C956        H961   1.083       .  S
C957        C958   1.407       .  A
C958        F959   1.357       .  S
C963        C964   1.403       .  A
C963        C968   1.396       .  A
C963        H970   1.083       .  S
C964        C965   1.416       .  A
C965        C966   1.397       .  A
C965        F972   1.357       .  S
C966        C967   1.396       .  A
C966        H971   1.084       .  S
C967        C968   1.406       .  A
C968        F969   1.357       .  S
C973        C978   1.403       .  A
C973        H980   1.083       .  S
C974        C975   1.406       .  A
C975        C976   1.398       .  A
C975        F982   1.357       .  S
C976        H981   1.083       .  S
C977        C978   1.407       .  A
C978        F979   1.357       .  S
C983        C984   1.405       .  A
C983        C988   1.386       .  A
C983        H990   1.083       .  S
C984        C985   1.410       .  A
C985        C986   1.408       .  A
C985        F992   1.357       .  S
C986        C987   1.406       .  A
C986        H991   1.083       .  S
C987        C988   1.401       .  A
C988        F989   1.356       .  S
C993        C994   1.412       .  A
C993        C998   1.398       .  A
C993       H1000   1.083       .  S
C994        C995   1.406       .  A
C995        C996   1.396       .  A
C995       F1002   1.357       .  S
C996        C997   1.405       .  A
C996       H1001   1.084       .  S
C997        C998   1.399       .  A
C998        F999   1.358       .  S
C1003      C1004   1.411       .  A
C1003      C1008   1.397       .  A
C1003      H1010   1.083       .  S
C1004      C1005   1.407       .  A
C1005      C1006   1.397       .  A
C1006      C1007   1.403       .  A
C1006      H1011   1.083       .  S
C1007      C1008   1.399       .  A
C1008      F2041   1.355   1_455  S
F1009      C2040   1.355       .  S
C1013      H1020   1.083   1_554  S
C1014      C1015   1.403       .  A
C1015      C1016   1.389       .  A
C1015      F1022   1.358       .  S
C1016      C1017   1.406       .  A
C1016      H1021   1.083       .  S
C1017      C1018   1.411       .  A
C1023      C1024   1.408       .  A
C1023      C1028   1.402       .  A
C1023      H1030   1.083       .  S
C1024      C1025   1.407       .  A
C1025      C1026   1.400       .  A
C1025      F1032   1.357       .  S
C1026      C1027   1.408       .  A
C1026      H1031   1.083       .  S
C1027      C1028   1.407       .  A
C1028      F1029   1.357       .  S
C1033      C1292   1.405       .  A
C1033      C1038   1.400       .  A
C1033      C1530   1.478       .  S
C1034      C1291   1.405       .  A
C1034      C1035   1.411       .  A
C1034      H1039   1.083       .  S
C1035      C1036   1.408       .  A
C1035      C1285   1.492       .  S
C1036      C1295   1.407       .  A
C1036      H1040   1.083       .  S
C1037      C1294   1.407       .  A
C1037      C1038   1.399       .  A
C1037      C1520   1.488       .  S
C1038      H1041   1.084       .  S
C1042      C1043   1.408       .  A
C1042      C1047   1.402       .  A
C1042      C1242   1.487       .  S
C1043      C1044   1.412       .  A
C1043      H1048   1.083       .  S
C1044      C1045   1.409       .  A
C1044      C1282   1.492       .  S
C1045      C1046   1.406       .  A
C1045      H1049   1.082       .  S
C1046      C1047   1.397       .  A
C1046      C1252   1.488       .  S
C1047      H1050   1.084       .  S
C1051      C1052   1.407       .  A
C1051      C1056   1.401       .  A
C1051      C1215   1.480       .  S
C1052      C1053   1.409       .  A
C1052      H1057   1.083       .  S
C1053      C1054   1.407       .  A
C1053      C1232   1.483       .  S
C1054      C1055   1.407       .  A
C1054      H1058   1.083       .  S
C1055      C1056   1.396       .  A
C1055      C1222   1.488       .  S
C1056      H1059   1.084       .  S
C1060      C1061   1.400       .  A
C1060      C1065   1.404       .  A
C1060      C1202   1.473       .  S
C1061      C1062   1.402       .  A
C1061      H1066   1.084       .  S
C1062      C1063   1.407       .  A
C1062      C1192   1.483       .  S
C1063      C1064   1.405       .  A
C1063      H1067   1.084       .  S
C1064      C1065   1.407       .  A
C1064      C1235   1.483       .  S
C1065      H1068   1.084       .  S
C1069      C1070   1.406       .  A
C1069      C1074   1.401       .  A
C1069      C1162   1.483       .  S
C1070      C1071   1.410       .  A
C1070      H1075   1.083       .  S
C1071      C1072   1.407       .  A
C1072      C1073   1.407       .  A
C1072      H1076   1.083       .  S
C1073      C1074   1.400       .  A
C1073      C1172   1.489       .  S
C1074      H1077   1.084       .  S
C1078      C1079   1.408       .  A
C1078      C1083   1.401       .  A
C1078      C1155   1.484       .  S
C1079      C1080   1.413       .  A
C1079      H1084   1.083       .  S
C1080      C1081   1.409       .  A
C1080      C1185   1.489       .  S
C1081      C1082   1.403       .  A
C1081      H1085   1.084       .  S
C1082      C1083   1.394       .  A
C1082      C1142   1.478       .  S
C1083      H1086   1.085       .  S
O1087      C1098   1.295       .  A
O1088      C1099   1.295       .  A
O1088     Zr1122   2.462       .  S
O1089      C1100   1.294       .  A
O1090      C1101   1.295       .  A
O1090     Zr1095   2.462       .  S
O1091      C1101   1.286       .  A
O1091     Zr1125   2.403       .  S
O1092      C1100   1.288       .  A
O1092     Zr1640   2.413       .  S
O1093      C1099   1.285       .  A
O1093     Zr1095   2.406       .  S
O1094      C1098   1.289       .  A
Zr1095     O1096   2.325       .  S
Zr1095     O1105   2.341       .  S
Zr1095     O1103   2.345       .  S
O1096     Zr1122   2.327       .  S
O1096     Zr1125   2.327       .  S
O1097     Zr1640   2.344       .  S
C1098      C1275   1.484       .  S
C1099      C1145   1.462       .  S
C1100      C1212   1.471       .  S
C1101      C1255   1.467       .  S
H1102      O1103   0.966       .  S
O1103     Zr1122   2.339       .  S
H1104      O1105   0.966       .  S
O1105     Zr1123   2.344       .  S
O1105     Zr1125   2.345       .  S
O1106      C1129   1.294       .  A
O1106     Zr1638   2.456       .  S
O1107      C1646   1.296       .  A
O1107     Zr1381   2.463       .  S
O1108     Zr1124   2.454       .  S
O1109      C1132   1.295       .  A
O1109     Zr1125   2.460       .  S
O1110      C1391   1.295       .  A
O1110     Zr1125   2.462   1_556  S
O1111      C1650   1.294       .  A
O1111     Zr1124   2.457       .  S
O1112     Zr1126   2.461       .  S
O1113      C1136   1.297       .  A
O1113     Zr1126   2.466   1_556  S
O1114      C1135   1.288       .  A
O1114     Zr1124   2.417       .  S
O1115      C1652   1.288   1_554  A
O1115     Zr1125   2.413       .  S
O1116      C1131   1.290       .  A
O1116     Zr1638   2.422       .  S
O1117      C1134   1.288   1_556  A
O1118      C1133   1.288       .  A
O1118     Zr1381   2.412       .  S
O1119      C1132   1.286       .  A
O1119     Zr1122   2.405       .  S
O1120      C1129   1.290       .  A
O1120     Zr1126   2.418       .  S
O1121      C1130   1.288       .  A
O1121     Zr1384   2.416       .  S
Zr1122     O1622   2.456       .  S
Zr1122     O1632   2.422       .  S
Zr1122     O1644   2.341       .  S
Zr1122     O1140   2.349       .  S
Zr1123     O1365   2.463   1_554  S
Zr1123     O1376   2.412   1_554  S
Zr1123     O1127   2.345       .  S
Zr1123     O1654   2.328       .  S
Zr1124     O1608   2.413   1_545  S
Zr1124     O1613   2.344   1_545  S
Zr1125     O1127   2.339       .  S
Zr1125     O1140   2.343       .  S
Zr1126     O1379   2.416   1_554  S
Zr1126     O1643   2.343   1_545  S
Zr1126     O1128   2.346       .  S
Zr1126     O1656   2.342       .  S
Zr1126     O1138   2.334       .  S
O1127     Zr1642   2.343       .  S
O1128     Zr1638   2.341       .  S
C1129      C1245   1.472       .  S
C1130      C1175   1.467       .  S
C1130      O1623   1.296       .  A
C1131      C1165   1.478       .  S
C1132      C1225   1.466       .  S
C1133      C1152   1.476       .  S
C1133      O1368   1.295       .  A
C1134      C1969   1.465   1_554  S
C1134      O1627   1.294       .  A
C1135      C1265   1.467       .  S
C1136      C1463   1.491       .  S
C1136      O1631   1.288   1_546  A
O1138     Zr1639   2.328   1_545  S
H1139      O1656   0.966       .  S
O1140     Zr1642   2.342       .  S
O1140      H1655   0.966       .  S
C1141      C1142   1.408       .  A
C1141      C1146   1.396       .  A
C1141      H1148   1.084       .  S
C1142      C1143   1.403       .  A
C1143      C1144   1.399       .  A
C1143      F1150   1.357       .  S
C1144      C1145   1.405       .  A
C1144      H1149   1.084       .  S
C1145      C1146   1.400       .  A
C1146      F1147   1.358       .  S
C1151      C1152   1.407       .  A
C1151      C1156   1.408       .  A
C1151      H1158   1.083       .  S
C1152      C1153   1.405       .  A
C1153      C1154   1.386       .  A
C1153      F1160   1.357       .  S
C1154      C1155   1.403       .  A
C1154      H1159   1.084       .  S
C1155      C1156   1.409       .  A
C1156      F1157   1.357       .  S
C1161      C1166   1.389       .  A
C1161      H1168   1.084       .  S
C1162      C1163   1.408       .  A
C1163      C1164   1.407       .  A
C1163      F1170   1.357       .  S
C1164      H1169   1.083       .  S
C1165      C1166   1.406       .  A
C1166      F1167   1.358       .  S
C1171      C1172   1.411       .  A
C1171      H1178   1.083       .  S
C1172      C1173   1.408       .  A
C1173      F1180   1.357       .  S
C1174      C1175   1.404   1_455  A
C1174      H1179   1.084       .  S
C1175      C1176   1.398       .  A
C1176      F1177   1.356       .  S
C1181      H1188   1.083       .  S
C1182      C1183   1.408       .  A
C1183      C1184   1.401       .  A
C1183      F1190   1.357       .  S
C1184      C1185   1.406       .  A
C1184      H1189   1.083       .  S
C1185      C1186   1.408       .  A
C1191      C1192   1.403       .  A
C1191      C1196   1.398       .  A
C1191      H1198   1.083       .  S
C1192      C1709   1.411       .  A
C1193      C1708   1.411       .  A
C1193      C1194   1.399       .  A
C1193      F1200   1.358       .  S
C1194      C1711   1.399       .  A
C1194      H1199   1.084       .  S
C1195      C1710   1.399   1_545  A
C1195      C1196   1.405       .  A
C1195      C1908   1.465       .  S
C1196      F1197   1.358       .  S
C1201      C1202   1.396   1_565  A
C1201      C1722   1.392       .  A
C1201      H1724   1.084       .  S
C1202      C1203   1.404       .  A
C1203      C1204   1.405       .  A
C1203      F1210   1.357       .  S
C1204      C1205   1.409       .  A
C1204      H1209   1.083       .  S
C1205      C1722   1.416   1_545  A
C1205      C1394   1.491       .  S
C1206      C1717   1.392       .  A
C1206      C1721   1.416       .  A
C1206      F1207   1.358       .  S
H1208      C1717   1.084       .  S
C1211      C1212   1.406       .  A
C1211      C1216   1.406       .  A
C1211      H1218   1.083       .  S
C1212      C1213   1.403       .  A
C1213      C1214   1.386       .  A
C1213      F1220   1.359       .  S
C1214      C1215   1.404       .  A
C1214      H1219   1.083       .  S
C1215      C1216   1.407       .  A
C1216      F1217   1.357       .  S
C1221      C1222   1.403       .  A
C1221      C1226   1.396       .  A
C1221      H1228   1.083       .  S
C1222      C1223   1.416       .  A
C1223      C1224   1.397       .  A
C1223      F1230   1.357       .  S
C1224      C1225   1.396       .  A
C1224      H1229   1.084       .  S
C1225      C1226   1.406       .  A
C1226      F1227   1.357       .  S
C1231      C1748   1.405   1_545  A
C1231      C1236   1.403       .  A
C1231      H1238   1.083       .  S
C1232      C1747   1.405       .  A
C1232      C1233   1.406       .  A
C1233      C1234   1.398       .  A
C1233      F1240   1.357       .  S
C1234      C1751   1.404       .  A
C1234      H1239   1.083       .  S
C1235      C1750   1.404   1_545  A
C1235      C1236   1.407       .  A
C1236      F1237   1.357       .  S
C1241      C1242   1.405       .  A
C1241      C1246   1.386       .  A
C1241      H1248   1.083       .  S
C1242      C1243   1.410       .  A
C1243      C1244   1.408       .  A
C1243      F1250   1.357       .  S
C1244      C1245   1.406       .  A
C1244      H1249   1.083       .  S
C1245      C1246   1.401       .  A
C1246      F1247   1.356       .  S
C1251      C1252   1.412       .  A
C1251      C1256   1.398       .  A
C1251      H1258   1.083       .  S
C1252      C1253   1.406       .  A
C1253      C1254   1.396       .  A
C1253      F1260   1.357       .  S
C1254      C1255   1.405       .  A
C1254      H1259   1.084       .  S
C1255      C1256   1.399       .  A
C1256      F1257   1.358       .  S
C1261      C1262   1.411       .  A
C1261      C1266   1.397       .  A
C1261      H1268   1.083       .  S
C1262      C1263   1.407       .  A
C1262      C1295   1.488       .  S
C1263      C1264   1.397       .  A
C1263      F1528   1.357   1_554  S
C1264      C1265   1.403       .  A
C1264      H1269   1.083       .  S
C1265      C1266   1.399       .  A
F1270      C1521   1.357       .  S
C1271      C1530   1.405       .  A
C1271      C1534   1.408       .  A
C1271      H1278   1.083       .  S
C1272      C1529   1.405       .  A
C1272      C1273   1.403       .  A
C1272      C1291   1.478       .  S
C1273      C1274   1.389       .  A
C1273      F1280   1.358       .  S
C1274      C1275   1.406       .  A
C1274      H1279   1.083       .  S
C1275      C1276   1.411       .  A
C1276      C1529   1.408       .  A
C1276      F1535   1.357   1_554  S
F1277      C1534   1.357       .  S
C1281      C1282   1.408       .  A
C1281      C1286   1.402       .  A
C1281      H1288   1.083       .  S
C1282      C1283   1.407       .  A
C1283      C1284   1.400       .  A
C1283      F1290   1.357       .  S
C1284      C1285   1.408       .  A
C1284      H1289   1.083       .  S
C1285      C1286   1.407       .  A
C1286      F1287   1.357       .  S
C1291      C1296   1.400       .  A
C1292      C1293   1.411       .  A
C1292      H1297   1.083       .  S
C1293      C1294   1.408       .  A
C1293      C1543   1.492       .  S
C1294      H1298   1.083       .  S
C1295      C1296   1.399       .  A
C1296      H1299   1.084       .  S
C1300      C1301   1.408       .  A
C1300      C1305   1.402       .  A
C1300      C1500   1.487       .  S
C1301      C1302   1.412       .  A
C1301      H1306   1.083       .  S
C1302      C1303   1.409       .  A
C1302      C1540   1.492       .  S
C1303      C1304   1.406       .  A
C1303      H1307   1.082       .  S
C1304      C1305   1.397       .  A
C1304      C1510   1.488       .  S
C1305      H1308   1.084       .  S
C1309      C1310   1.407       .  A
C1309      C1314   1.401       .  A
C1309      C1473   1.480       .  S
C1310      C1311   1.409       .  A
C1310      H1315   1.083       .  S
C1311      C1312   1.407       .  A
C1311      C1490   1.483       .  S
C1312      C1313   1.407       .  A
C1312      H1316   1.083       .  S
C1313      C1314   1.396       .  A
C1313      C1480   1.488       .  S
C1314      H1317   1.084       .  S
C1318      C1319   1.400       .  A
C1318      C1323   1.404       .  A
C1318      C1460   1.473       .  S
C1319      C1320   1.402       .  A
C1319      H1324   1.084       .  S
C1320      C1321   1.407       .  A
C1320      C1450   1.483       .  S
C1321      C1322   1.405       .  A
C1321      H1325   1.084       .  S
C1322      C1323   1.407       .  A
C1322      C1493   1.483       .  S
C1323      H1326   1.084       .  S
C1327      C1328   1.406       .  A
C1327      C1332   1.401       .  A
C1327      C1420   1.483       .  S
C1328      C1329   1.410       .  A
C1328      H1333   1.083       .  S
C1329      C1330   1.407       .  A
C1330      C1331   1.407       .  A
C1330      H1334   1.083       .  S
C1331      C1332   1.400       .  A
C1331      C1430   1.489       .  S
C1332      H1335   1.084       .  S
C1336      C1337   1.408       .  A
C1336      C1341   1.401       .  A
C1336      C1413   1.484       .  S
C1337      C1338   1.413       .  A
C1337      H1342   1.083       .  S
C1338      C1339   1.409       .  A
C1338      C1443   1.489       .  S
C1339      C1340   1.403       .  A
C1339      H1343   1.084       .  S
C1340      C1341   1.394       .  A
C1340      C1400   1.478       .  S
C1341      H1344   1.085       .  S
O1345      C1356   1.295       .  A
O1346      C1357   1.295       .  A
O1346     Zr1380   2.462       .  S
O1347      C1358   1.294       .  A
O1348      C1359   1.295       .  A
O1348     Zr1353   2.462       .  S
O1349      C1359   1.286       .  A
O1349     Zr1383   2.403       .  S
O1350      C1358   1.288       .  A
O1350     Zr1898   2.413       .  S
O1351      C1357   1.285       .  A
O1351     Zr1353   2.406       .  S
O1352      C1356   1.289       .  A
Zr1353     O1354   2.325       .  S
Zr1353     O1363   2.341       .  S
Zr1353     O1361   2.345       .  S
O1354     Zr1380   2.327       .  S
O1354     Zr1383   2.327       .  S
O1355     Zr1898   2.344       .  S
C1356      C1533   1.484       .  S
C1357      C1403   1.462       .  S
C1358      C1470   1.471       .  S
C1359      C1513   1.467       .  S
H1360      O1361   0.966       .  S
O1361     Zr1380   2.339       .  S
H1362      O1363   0.966       .  S
O1363     Zr1381   2.344       .  S
O1363     Zr1383   2.345       .  S
O1364      C1387   1.294       .  A
O1364     Zr1896   2.456       .  S
O1365      C1904   1.296       .  A
O1366     Zr1382   2.454       .  S
O1367      C1390   1.295       .  A
O1367     Zr1383   2.460       .  S
O1368     Zr1383   2.462       .  S
O1369      C1908   1.294       .  A
O1369     Zr1382   2.457       .  S
O1370     Zr1384   2.461       .  S
O1371      C1394   1.297       .  A
O1371     Zr1384   2.466       .  S
O1372      C1393   1.288       .  A
O1372     Zr1382   2.417       .  S
O1373      C1910   1.288       .  A
O1373     Zr1383   2.413       .  S
O1374      C1389   1.290       .  A
O1374     Zr1896   2.422       .  S
O1375      C1392   1.288       .  A
O1376      C1391   1.288       .  A
O1377      C1390   1.286       .  A
O1377     Zr1380   2.405       .  S
O1378      C1387   1.290       .  A
O1378     Zr1384   2.418       .  S
O1379      C1388   1.288       .  A
Zr1380     O1880   2.456       .  S
Zr1380     O1890   2.422       .  S
Zr1380     O1902   2.341       .  S
Zr1380     O1398   2.349       .  S
Zr1381     O1385   2.345       .  S
Zr1381     O1912   2.328       .  S
Zr1382     O1866   2.413   1_545  S
Zr1382     O1871   2.344   1_545  S
Zr1383     O1385   2.339       .  S
Zr1383     O1398   2.343       .  S
Zr1384     O1901   2.343   1_545  S
Zr1384     O1386   2.346       .  S
Zr1384     O1914   2.342       .  S
Zr1384     O1396   2.334       .  S
O1385     Zr1900   2.343       .  S
O1386     Zr1896   2.341       .  S
C1387      C1503   1.472       .  S
C1388      C1433   1.467       .  S
C1388      O1881   1.296       .  A
C1389      C1423   1.478       .  S
C1390      C1483   1.466       .  S
C1391      C1410   1.476       .  S
C1392      C1711   1.465       .  S
C1392      O1885   1.294       .  A
C1393      C1523   1.467       .  S
C1394      O1889   1.288   1_545  A
O1396     Zr1897   2.328   1_545  S
H1397      O1914   0.966       .  S
O1398     Zr1900   2.342       .  S
O1398      H1913   0.966       .  S
C1399      C1400   1.408       .  A
C1399      C1404   1.396       .  A
C1399      H1406   1.084       .  S
C1400      C1401   1.403       .  A
C1401      C1402   1.399       .  A
C1401      F1408   1.357       .  S
C1402      C1403   1.404       .  A
C1402      H1407   1.084       .  S
C1403      C1404   1.400       .  A
C1404      F1405   1.358       .  S
C1409      C1410   1.407       .  A
C1409      C1414   1.408       .  A
C1409      H1416   1.083       .  S
C1410      C1411   1.405       .  A
C1411      C1412   1.386       .  A
C1411      F1418   1.357       .  S
C1412      C1413   1.403       .  A
C1412      H1417   1.084       .  S
C1413      C1414   1.409       .  A
C1414      F1415   1.357       .  S
C1419      C1424   1.389       .  A
C1419      H1426   1.084       .  S
C1420      C1421   1.408       .  A
C1421      C1422   1.407       .  A
C1421      F1428   1.357       .  S
C1422      H1427   1.083       .  S
C1423      C1424   1.406       .  A
C1424      F1425   1.358       .  S
C1429      C1430   1.411       .  A
C1429      H1436   1.083       .  S
C1430      C1431   1.408       .  A
C1431      F1438   1.357       .  S
C1432      C1433   1.404   1_455  A
C1432      H1437   1.084       .  S
C1433      C1434   1.398       .  A
C1434      F1435   1.356       .  S
C1439      H1446   1.083       .  S
C1440      C1441   1.408       .  A
C1441      C1442   1.401       .  A
C1441      F1448   1.357       .  S
C1442      C1443   1.406       .  A
C1442      H1447   1.083       .  S
C1443      C1444   1.408       .  A
C1449      C1450   1.403       .  A
C1449      C1454   1.398       .  A
C1449      H1456   1.083       .  S
C1450      C1967   1.411       .  A
C1451      C1966   1.411       .  A
C1451      C1452   1.399   1_556  A
C1451      F1458   1.358       .  S
C1452      C1969   1.399   1_554  A
C1452      H1457   1.084       .  S
C1453      C1968   1.399   1_546  A
C1453      C1454   1.405       .  A
C1453      C1650   1.465   1_556  S
C1454      F1455   1.358       .  S
C1459      C1460   1.396   1_565  A
C1459      C1980   1.392       .  A
C1459      H1982   1.084       .  S
C1460      C1461   1.404       .  A
C1461      C1462   1.405       .  A
C1461      F1468   1.357       .  S
C1462      C1463   1.409       .  A
C1462      H1467   1.083       .  S
C1463      C1980   1.416   1_545  A
C1464      C1975   1.392       .  A
C1464      C1979   1.416       .  A
C1464      F1465   1.358       .  S
H1466      C1975   1.084       .  S
C1469      C1470   1.406       .  A
C1469      C1474   1.406       .  A
C1469      H1476   1.083       .  S
C1470      C1471   1.403       .  A
C1471      C1472   1.386       .  A
C1471      F1478   1.359       .  S
C1472      C1473   1.404       .  A
C1472      H1477   1.083       .  S
C1473      C1474   1.407       .  A
C1474      F1475   1.357       .  S
C1479      C1480   1.403       .  A
C1479      C1484   1.396       .  A
C1479      H1486   1.083       .  S
C1480      C1481   1.416       .  A
C1481      C1482   1.397       .  A
C1481      F1488   1.357       .  S
C1482      C1483   1.396       .  A
C1482      H1487   1.084       .  S
C1483      C1484   1.406       .  A
C1484      F1485   1.357       .  S
C1489      C2006   1.405   1_545  A
C1489      C1494   1.403       .  A
C1489      H1496   1.083       .  S
C1490      C2005   1.405       .  A
C1490      C1491   1.406       .  A
C1491      C1492   1.398       .  A
C1491      F1498   1.357       .  S
C1492      C2009   1.404       .  A
C1492      H1497   1.083       .  S
C1493      C2008   1.404   1_545  A
C1493      C1494   1.407       .  A
C1494      F1495   1.357       .  S
C1499      C1500   1.405       .  A
C1499      C1504   1.386       .  A
C1499      H1506   1.083       .  S
C1500      C1501   1.410       .  A
C1501      C1502   1.408       .  A
C1501      F1508   1.357       .  S
C1502      C1503   1.406       .  A
C1502      H1507   1.083       .  S
C1503      C1504   1.401       .  A
C1504      F1505   1.356       .  S
C1509      C1510   1.412       .  A
C1509      C1514   1.398       .  A
C1509      H1516   1.083       .  S
C1510      C1511   1.406       .  A
C1511      C1512   1.396       .  A
C1511      F1518   1.357       .  S
C1512      C1513   1.405       .  A
C1512      H1517   1.084       .  S
C1513      C1514   1.399       .  A
C1514      F1515   1.358       .  S
C1519      C1520   1.411       .  A
C1519      C1524   1.397       .  A
C1519      H1526   1.083       .  S
C1520      C1521   1.407       .  A
C1521      C1522   1.397       .  A
C1522      C1523   1.403       .  A
C1522      H1527   1.083       .  S
C1523      C1524   1.399       .  A
C1529      H1536   1.083   1_554  S
C1530      C1531   1.403       .  A
C1531      C1532   1.389       .  A
C1531      F1538   1.358       .  S
C1532      C1533   1.406       .  A
C1532      H1537   1.083       .  S
C1533      C1534   1.411       .  A
C1539      C1540   1.408       .  A
C1539      C1544   1.402       .  A
C1539      H1546   1.083       .  S
C1540      C1541   1.407       .  A
C1541      C1542   1.400       .  A
C1541      F1548   1.357       .  S
C1542      C1543   1.408       .  A
C1542      H1547   1.083       .  S
C1543      C1544   1.407       .  A
C1544      F1545   1.357       .  S
C1549      C1808   1.405       .  A
C1549      C1554   1.400       .  A
C1549      C2046   1.478       .  S
C1550      C1807   1.405       .  A
C1550      C1551   1.411       .  A
C1550      H1555   1.083       .  S
C1551      C1552   1.408       .  A
C1551      C1801   1.492       .  S
C1552      C1811   1.407       .  A
C1552      H1556   1.083       .  S
C1553      C1810   1.407       .  A
C1553      C1554   1.399       .  A
C1553      C2036   1.488       .  S
C1554      H1557   1.084       .  S
C1558      C1559   1.408       .  A
C1558      C1563   1.402       .  A
C1558      C1758   1.487       .  S
C1559      C1560   1.412       .  A
C1559      H1564   1.083       .  S
C1560      C1561   1.409       .  A
C1560      C1798   1.492       .  S
C1561      C1562   1.406       .  A
C1561      H1565   1.082       .  S
C1562      C1563   1.397       .  A
C1562      C1768   1.488       .  S
C1563      H1566   1.084       .  S
C1567      C1568   1.407       .  A
C1567      C1572   1.401       .  A
C1567      C1731   1.480       .  S
C1568      C1569   1.409       .  A
C1568      H1573   1.083       .  S
C1569      C1570   1.407       .  A
C1569      C1748   1.483       .  S
C1570      C1571   1.407       .  A
C1570      H1574   1.083       .  S
C1571      C1572   1.396       .  A
C1571      C1738   1.488       .  S
C1572      H1575   1.084       .  S
C1576      C1577   1.400       .  A
C1576      C1581   1.404       .  A
C1576      C1718   1.473       .  S
C1577      C1578   1.402       .  A
C1577      H1582   1.084       .  S
C1578      C1579   1.407       .  A
C1578      C1708   1.483       .  S
C1579      C1580   1.405       .  A
C1579      H1583   1.084       .  S
C1580      C1581   1.407       .  A
C1580      C1751   1.483       .  S
C1581      H1584   1.084       .  S
C1585      C1586   1.406       .  A
C1585      C1590   1.401       .  A
C1585      C1678   1.483       .  S
C1586      C1587   1.410       .  A
C1586      H1591   1.083       .  S
C1587      C1588   1.407       .  A
C1588      C1589   1.407       .  A
C1588      H1592   1.083       .  S
C1589      C1590   1.400       .  A
C1589      C1688   1.489       .  S
C1590      H1593   1.084       .  S
C1594      C1595   1.408       .  A
C1594      C1599   1.401       .  A
C1594      C1671   1.484       .  S
C1595      C1596   1.413       .  A
C1595      H1600   1.083       .  S
C1596      C1597   1.409       .  A
C1596      C1701   1.489       .  S
C1597      C1598   1.403       .  A
C1597      H1601   1.084       .  S
C1598      C1599   1.394       .  A
C1598      C1658   1.478       .  S
C1599      H1602   1.085       .  S
O1603      C1614   1.295       .  A
O1604      C1615   1.295       .  A
O1604     Zr1638   2.462   1_565  S
O1605      C1616   1.294       .  A
O1606      C1617   1.295       .  A
O1606     Zr1611   2.462       .  S
O1607      C1617   1.286       .  A
O1607     Zr1641   2.403       .  S
O1608      C1616   1.288       .  A
O1609      C1615   1.285       .  A
O1609     Zr1611   2.406       .  S
O1610      C1614   1.289       .  A
Zr1611     O1612   2.325       .  S
Zr1611     O1621   2.341       .  S
Zr1611     O1619   2.345       .  S
O1612     Zr1638   2.327   1_565  S
O1612     Zr1641   2.327       .  S
C1614      C1791   1.484       .  S
C1615      C1661   1.462       .  S
C1616      C1728   1.471       .  S
C1617      C1771   1.467       .  S
H1618      O1619   0.966       .  S
O1619     Zr1638   2.339   1_565  S
H1620      O1621   0.966       .  S
O1621     Zr1639   2.344       .  S
O1621     Zr1641   2.345       .  S
O1622      C1645   1.294       .  A
O1623     Zr1897   2.463   1_545  S
O1624     Zr1640   2.454       .  S
O1625      C1648   1.295       .  A
O1625     Zr1641   2.460       .  S
O1626      C1907   1.295       .  A
O1626     Zr1641   2.462   1_556  S
O1627     Zr1640   2.457       .  S
O1628     Zr1642   2.461       .  S
O1629      C1652   1.297       .  A
O1629     Zr1642   2.466   1_556  S
O1630      C1651   1.288       .  A
O1630     Zr1640   2.417       .  S
O1631     Zr1641   2.413       .  S
O1632      C1647   1.290       .  A
O1633      C1650   1.288   1_566  A
O1634      C1649   1.288       .  A
O1634     Zr1897   2.412       .  S
O1635      C1648   1.286       .  A
O1635     Zr1638   2.405   1_565  S
O1636      C1645   1.290       .  A
O1636     Zr1642   2.418       .  S
O1637      C1646   1.288       .  A
O1637     Zr1900   2.416       .  S
Zr1638     O1656   2.349       .  S
Zr1639     O1881   2.463   1_564  S
Zr1639     O1892   2.412   1_554  S
Zr1639     O1643   2.345       .  S
Zr1641     O1643   2.339       .  S
Zr1641     O1656   2.343   1_565  S
Zr1642     O1895   2.416   1_554  S
Zr1642     O1644   2.346       .  S
Zr1642     O1654   2.334       .  S
C1645      C1761   1.472       .  S
C1646      C1691   1.467       .  S
C1647      C1681   1.478       .  S
C1648      C1741   1.466       .  S
C1649      C1668   1.476       .  S
C1649      O1884   1.295       .  A
C1651      C1781   1.467       .  S
C1652      C1979   1.491       .  S
C1657      C1658   1.408       .  A
C1657      C1662   1.396       .  A
C1657      H1664   1.084       .  S
C1658      C1659   1.403       .  A
C1659      C1660   1.399       .  A
C1659      F1666   1.357       .  S
C1660      C1661   1.405       .  A
C1660      H1665   1.084       .  S
C1661      C1662   1.400       .  A
C1662      F1663   1.358       .  S
C1667      C1668   1.407       .  A
C1667      C1672   1.408       .  A
C1667      H1674   1.083       .  S
C1668      C1669   1.405       .  A
C1669      C1670   1.386       .  A
C1669      F1676   1.357       .  S
C1670      C1671   1.403       .  A
C1670      H1675   1.084       .  S
C1671      C1672   1.409       .  A
C1672      F1673   1.357       .  S
C1677      C1682   1.389       .  A
C1677      H1684   1.084       .  S
C1678      C1679   1.408       .  A
C1679      C1680   1.407       .  A
C1679      F1686   1.357       .  S
C1680      H1685   1.083       .  S
C1681      C1682   1.406       .  A
C1682      F1683   1.358       .  S
C1687      C1688   1.411       .  A
C1687      H1694   1.083       .  S
C1688      C1689   1.408       .  A
C1689      F1696   1.357       .  S
C1690      C1691   1.404   1_455  A
C1690      H1695   1.084       .  S
C1691      C1692   1.398       .  A
C1692      F1693   1.356       .  S
C1697      H1704   1.083       .  S
C1698      C1699   1.408       .  A
C1699      C1700   1.401       .  A
C1699      F1706   1.357       .  S
C1700      C1701   1.406       .  A
C1700      H1705   1.083       .  S
C1701      C1702   1.408       .  A
C1707      C1708   1.403       .  A
C1707      C1712   1.398       .  A
C1707      H1714   1.083       .  S
C1709      C1710   1.399   1_545  A
C1709      F1716   1.358   1_545  S
C1710      H1715   1.084       .  S
C1711      C1712   1.405       .  A
C1712      F1713   1.358       .  S
C1717      C1718   1.396       .  A
C1718      C1719   1.404       .  A
C1719      C1720   1.405       .  A
C1719      F1726   1.357       .  S
C1720      C1721   1.409       .  A
C1720      H1725   1.083       .  S
C1721      C1910   1.491       .  S
C1722      F1723   1.358       .  S
C1727      C1728   1.406       .  A
C1727      C1732   1.406       .  A
C1727      H1734   1.083       .  S
C1728      C1729   1.403       .  A
C1729      C1730   1.386       .  A
C1729      F1736   1.359       .  S
C1730      C1731   1.404       .  A
C1730      H1735   1.083       .  S
C1731      C1732   1.407       .  A
C1732      F1733   1.357       .  S
C1737      C1738   1.403       .  A
C1737      C1742   1.396       .  A
C1737      H1744   1.083       .  S
C1738      C1739   1.416       .  A
C1739      C1740   1.397       .  A
C1739      F1746   1.357       .  S
C1740      C1741   1.396       .  A
C1740      H1745   1.084       .  S
C1741      C1742   1.406       .  A
C1742      F1743   1.357       .  S
C1747      C1752   1.403       .  A
C1747      H1754   1.083       .  S
C1748      C1749   1.406       .  A
C1749      C1750   1.398       .  A
C1749      F1756   1.357       .  S
C1750      H1755   1.083       .  S
C1751      C1752   1.407       .  A
C1752      F1753   1.357       .  S
C1757      C1758   1.405       .  A
C1757      C1762   1.386       .  A
C1757      H1764   1.083       .  S
C1758      C1759   1.410       .  A
C1759      C1760   1.408       .  A
C1759      F1766   1.357       .  S
C1760      C1761   1.406       .  A
C1760      H1765   1.083       .  S
C1761      C1762   1.401       .  A
C1762      F1763   1.356       .  S
C1767      C1768   1.412       .  A
C1767      C1772   1.398       .  A
C1767      H1774   1.083       .  S
C1768      C1769   1.406       .  A
C1769      C1770   1.396       .  A
C1769      F1776   1.357       .  S
C1770      C1771   1.405       .  A
C1770      H1775   1.084       .  S
C1771      C1772   1.399       .  A
C1772      F1773   1.358       .  S
C1777      C1778   1.411       .  A
C1777      C1782   1.397       .  A
C1777      H1784   1.083       .  S
C1778      C1779   1.407       .  A
C1778      C1811   1.488       .  S
C1779      C1780   1.397       .  A
C1779      F2044   1.357   1_554  S
C1780      C1781   1.403       .  A
C1780      H1785   1.083       .  S
C1781      C1782   1.399       .  A
F1786      C2037   1.357       .  S
C1787      C2046   1.405       .  A
C1787      C2050   1.408       .  A
C1787      H1794   1.083       .  S
C1788      C2045   1.405       .  A
C1788      C1789   1.403       .  A
C1788      C1807   1.478       .  S
C1789      C1790   1.389       .  A
C1789      F1796   1.358       .  S
C1790      C1791   1.406       .  A
C1790      H1795   1.083       .  S
C1791      C1792   1.411       .  A
C1792      C2045   1.408       .  A
C1792      F2051   1.357   1_554  S
F1793      C2050   1.357       .  S
C1797      C1798   1.408       .  A
C1797      C1802   1.402       .  A
C1797      H1804   1.083       .  S
C1798      C1799   1.407       .  A
C1799      C1800   1.400       .  A
C1799      F1806   1.357       .  S
C1800      C1801   1.408       .  A
C1800      H1805   1.083       .  S
C1801      C1802   1.407       .  A
C1802      F1803   1.357       .  S
C1807      C1812   1.400       .  A
C1808      C1809   1.411       .  A
C1808      H1813   1.083       .  S
C1809      C1810   1.408       .  A
C1809      C2059   1.492       .  S
C1810      H1814   1.083       .  S
C1811      C1812   1.399       .  A
C1812      H1815   1.084       .  S
C1816      C1817   1.408       .  A
C1816      C1821   1.402       .  A
C1816      C2016   1.487       .  S
C1817      C1818   1.412       .  A
C1817      H1822   1.083       .  S
C1818      C1819   1.409       .  A
C1818      C2056   1.492       .  S
C1819      C1820   1.406       .  A
C1819      H1823   1.082       .  S
C1820      C1821   1.397       .  A
C1820      C2026   1.488       .  S
C1821      H1824   1.084       .  S
C1825      C1826   1.407       .  A
C1825      C1830   1.401       .  A
C1825      C1989   1.480       .  S
C1826      C1827   1.409       .  A
C1826      H1831   1.083       .  S
C1827      C1828   1.407       .  A
C1827      C2006   1.483       .  S
C1828      C1829   1.407       .  A
C1828      H1832   1.083       .  S
C1829      C1830   1.396       .  A
C1829      C1996   1.488       .  S
C1830      H1833   1.084       .  S
C1834      C1835   1.400       .  A
C1834      C1839   1.404       .  A
C1834      C1976   1.473       .  S
C1835      C1836   1.402       .  A
C1835      H1840   1.084       .  S
C1836      C1837   1.407       .  A
C1836      C1966   1.483       .  S
C1837      C1838   1.405       .  A
C1837      H1841   1.084       .  S
C1838      C1839   1.407       .  A
C1838      C2009   1.483       .  S
C1839      H1842   1.084       .  S
C1843      C1844   1.406       .  A
C1843      C1848   1.401       .  A
C1843      C1936   1.483       .  S
C1844      C1845   1.410       .  A
C1844      H1849   1.083       .  S
C1845      C1846   1.407       .  A
C1846      C1847   1.407       .  A
C1846      H1850   1.083       .  S
C1847      C1848   1.400       .  A
C1847      C1946   1.489       .  S
C1848      H1851   1.084       .  S
C1852      C1853   1.408       .  A
C1852      C1857   1.401       .  A
C1852      C1929   1.484       .  S
C1853      C1854   1.413       .  A
C1853      H1858   1.083       .  S
C1854      C1855   1.409       .  A
C1854      C1959   1.489       .  S
C1855      C1856   1.403       .  A
C1855      H1859   1.084       .  S
C1856      C1857   1.394       .  A
C1856      C1916   1.478       .  S
C1857      H1860   1.085       .  S
O1861      C1872   1.295       .  A
O1862      C1873   1.295       .  A
O1862     Zr1896   2.462   1_565  S
O1863      C1874   1.294       .  A
O1864      C1875   1.295       .  A
O1864     Zr1869   2.462       .  S
O1865      C1875   1.286       .  A
O1865     Zr1899   2.403       .  S
O1866      C1874   1.288       .  A
O1867      C1873   1.285       .  A
O1867     Zr1869   2.406       .  S
O1868      C1872   1.289       .  A
Zr1869     O1870   2.325       .  S
Zr1869     O1879   2.341       .  S
Zr1869     O1877   2.345       .  S
O1870     Zr1896   2.327   1_565  S
O1870     Zr1899   2.327       .  S
C1872      C2049   1.484       .  S
C1873      C1919   1.462       .  S
C1874      C1986   1.471       .  S
C1875      C2029   1.467       .  S
H1876      O1877   0.966       .  S
O1877     Zr1896   2.339   1_565  S
H1878      O1879   0.966       .  S
O1879     Zr1897   2.344       .  S
O1879     Zr1899   2.345       .  S
O1880      C1903   1.294       .  A
O1882     Zr1898   2.454       .  S
O1883      C1906   1.295       .  A
O1883     Zr1899   2.460       .  S
O1884     Zr1899   2.462       .  S
O1885     Zr1898   2.457       .  S
O1886     Zr1900   2.461       .  S
O1887      C1910   1.297       .  A
O1887     Zr1900   2.466       .  S
O1888      C1909   1.288       .  A
O1888     Zr1898   2.417       .  S
O1889     Zr1899   2.413       .  S
O1890      C1905   1.290       .  A
O1891      C1908   1.288   1_565  A
O1892      C1907   1.288       .  A
O1893      C1906   1.286       .  A
O1893     Zr1896   2.405   1_565  S
O1894      C1903   1.290       .  A
O1894     Zr1900   2.418       .  S
O1895      C1904   1.288       .  A
Zr1896     O1914   2.349       .  S
Zr1897     O1901   2.345       .  S
Zr1899     O1901   2.339       .  S
Zr1899     O1914   2.343   1_565  S
Zr1900     O1902   2.346       .  S
Zr1900     O1912   2.334       .  S
C1903      C2019   1.472       .  S
C1904      C1949   1.467       .  S
C1905      C1939   1.478       .  S
C1906      C1999   1.466       .  S
C1907      C1926   1.476       .  S
C1909      C2039   1.467       .  S
C1915      C1916   1.408       .  A
C1915      C1920   1.396       .  A
C1915      H1922   1.084       .  S
C1916      C1917   1.403       .  A
C1917      C1918   1.399       .  A
C1917      F1924   1.357       .  S
C1918      C1919   1.404       .  A
C1918      H1923   1.084       .  S
C1919      C1920   1.400       .  A
C1920      F1921   1.358       .  S
C1925      C1926   1.407       .  A
C1925      C1930   1.408       .  A
C1925      H1932   1.083       .  S
C1926      C1927   1.405       .  A
C1927      C1928   1.386       .  A
C1927      F1934   1.357       .  S
C1928      C1929   1.403       .  A
C1928      H1933   1.084       .  S
C1929      C1930   1.409       .  A
C1930      F1931   1.357       .  S
C1935      C1940   1.389       .  A
C1935      H1942   1.084       .  S
C1936      C1937   1.408       .  A
C1937      C1938   1.407       .  A
C1937      F1944   1.357       .  S
C1938      H1943   1.083       .  S
C1939      C1940   1.406       .  A
C1940      F1941   1.358       .  S
C1945      C1946   1.411       .  A
C1945      H1952   1.083       .  S
C1946      C1947   1.408       .  A
C1947      F1954   1.357       .  S
C1948      C1949   1.404   1_455  A
C1948      H1953   1.084       .  S
C1949      C1950   1.398       .  A
C1950      F1951   1.356       .  S
C1955      H1962   1.083       .  S
C1956      C1957   1.408       .  A
C1957      C1958   1.401       .  A
C1957      F1964   1.357       .  S
C1958      C1959   1.406       .  A
C1958      H1963   1.083       .  S
C1959      C1960   1.408       .  A
C1965      C1966   1.403       .  A
C1965      C1970   1.398       .  A
C1965      H1972   1.083       .  S
C1967      C1968   1.399   1_546  A
C1967      F1974   1.358   1_545  S
C1968      H1973   1.084       .  S
C1969      C1970   1.405       .  A
C1970      F1971   1.358       .  S
C1975      C1976   1.396       .  A
C1976      C1977   1.404       .  A
C1977      C1978   1.405       .  A
C1977      F1984   1.357       .  S
C1978      C1979   1.409       .  A
C1978      H1983   1.083       .  S
C1980      F1981   1.358       .  S
C1985      C1986   1.406       .  A
C1985      C1990   1.406       .  A
C1985      H1992   1.083       .  S
C1986      C1987   1.403       .  A
C1987      C1988   1.386       .  A
C1987      F1994   1.359       .  S
C1988      C1989   1.404       .  A
C1988      H1993   1.083       .  S
C1989      C1990   1.407       .  A
C1990      F1991   1.357       .  S
C1995      C1996   1.403       .  A
C1995      C2000   1.396       .  A
C1995      H2002   1.083       .  S
C1996      C1997   1.416       .  A
C1997      C1998   1.397       .  A
C1997      F2004   1.357       .  S
C1998      C1999   1.396       .  A
C1998      H2003   1.084       .  S
C1999      C2000   1.406       .  A
C2000      F2001   1.357       .  S
C2005      C2010   1.403       .  A
C2005      H2012   1.083       .  S
C2006      C2007   1.406       .  A
C2007      C2008   1.398       .  A
C2007      F2014   1.357       .  S
C2008      H2013   1.083       .  S
C2009      C2010   1.407       .  A
C2010      F2011   1.357       .  S
C2015      C2016   1.405       .  A
C2015      C2020   1.386       .  A
C2015      H2022   1.083       .  S
C2016      C2017   1.410       .  A
C2017      C2018   1.408       .  A
C2017      F2024   1.357       .  S
C2018      C2019   1.406       .  A
C2018      H2023   1.083       .  S
C2019      C2020   1.401       .  A
C2020      F2021   1.356       .  S
C2025      C2026   1.412       .  A
C2025      C2030   1.398       .  A
C2025      H2032   1.083       .  S
C2026      C2027   1.406       .  A
C2027      C2028   1.396       .  A
C2027      F2034   1.357       .  S
C2028      C2029   1.405       .  A
C2028      H2033   1.084       .  S
C2029      C2030   1.399       .  A
C2030      F2031   1.358       .  S
C2035      C2036   1.411       .  A
C2035      C2040   1.397       .  A
C2035      H2042   1.083       .  S
C2036      C2037   1.407       .  A
C2037      C2038   1.397       .  A
C2038      C2039   1.403       .  A
C2038      H2043   1.083       .  S
C2039      C2040   1.399       .  A
C2045      H2052   1.083   1_554  S
C2046      C2047   1.403       .  A
C2047      C2048   1.389       .  A
C2047      F2054   1.358       .  S
C2048      C2049   1.406       .  A
C2048      H2053   1.083       .  S
C2049      C2050   1.411       .  A
C2055      C2056   1.408       .  A
C2055      C2060   1.402       .  A
C2055      H2062   1.083       .  S
C2056      C2057   1.407       .  A
C2057      C2058   1.400       .  A
C2057      F2064   1.357       .  S
C2058      C2059   1.408       .  A
C2058      H2063   1.083       .  S
C2059      C2060   1.407       .  A
C2060      F2061   1.357       .  S
