geometry optimzed in LAMMPS
_audit_creation_date              2020-12-01 
_audit_creation_method            'lammps2cif' 
_symmetry_space_group_name_H-M    'P1' 
_symmetry_Int_Tables_number       1 
_symmetry_cell_setting            triclinic 
loop_ 
_symmetry_equiv_pos_as_xyz 
  x,y,z 
_cell_length_a                    35.99651654 
_cell_length_b                    36.36568012988614 
_cell_length_c                    38.15820895491608 
_cell_angle_alpha                 111.14881780047052 
_cell_angle_beta                  79.65016958834995 
_cell_angle_gamma                 121.13684496704587 
loop_ 
_atom_site_label 
_atom_site_type_symbol 
_atom_site_fract_x 
_atom_site_fract_y 
_atom_site_fract_z 
_atom_site_charge 
N1          N  0.86215080  0.42784776  0.00051260    -0.02600
C2          C  0.90417612  0.43802199  0.00025537     0.00000
C3          C  0.91693810  0.42198359  0.29452338    -0.22900
C4          C  0.88118147  0.40201493  0.27238267    -0.23100
C5          C  0.84908906  0.40646354  0.29616034    -0.00100
H6          H  0.94899491  0.42819503  0.28413139     0.13700
H7          H  0.87969105  0.38865917  0.24200671     0.13700
N8          N  0.50165399  0.10749619  0.27702372    -0.01500
C9          C  0.48332997  0.06253204  0.27138149     0.00000
C10         C  0.46472001  0.03757263  0.23593644    -0.22900
C11         C  0.47179003  0.06826497  0.21912005    -0.23100
C12         C  0.49450121  0.11073857  0.24491855    -0.00100
H13         H  0.44762490  0.00104116  0.22373969     0.13700
H14         H  0.46289338  0.06054078  0.19067146     0.13700
N15         N  0.53801804  0.48384204  0.03646680    -0.02600
C16         C  0.51701094  0.50801894  0.04491746     0.00000
C17         C  0.51860145  0.52990616  0.08313831    -0.22900
C18         C  0.54168609  0.51929493  0.09888850    -0.23100
C19         C  0.55353550  0.49144363  0.06968906    -0.00100
H20         H  0.50433845  0.55116373  0.09794345     0.13700
H21         H  0.54835860  0.52998756  0.12852327     0.13700
Fe22       Fe  0.65871156  0.30284100  0.13842379     1.65800
Fe23       Fe  0.57210660  0.32080579  0.15239816     1.73200
Fe24       Fe  0.67496742  0.41102474  0.17544572     1.54400
O25         O  0.70872562  0.40487340  0.20989022    -0.80800
O26         O  0.58144766  0.36309503  0.12376076    -0.79100
O27         O  0.69728823  0.33434439  0.18527429    -0.83300
O28         O  0.70900529  0.34084594  0.10880936    -0.78100
O29         O  0.63647697  0.42073130  0.22098832    -0.79900
O30         O  0.56365484  0.27116975  0.10080915    -0.82700
C31         C  0.72905872  0.38204075  0.10993294     0.98100
C32         C  0.71435741  0.37312858  0.20989508     1.05500
O33         O  0.63531574  0.34493788  0.15536899    -1.11600
O34         O  0.55763298  0.27644376  0.18075685    -0.74100
O35         O  0.61192679  0.26078540  0.16685152    -0.77600
O36         O  0.71927938  0.41107439  0.13275413    -0.78200
C37         C  0.57615958  0.25556345  0.18274890     0.97000
O38         O  0.62288281  0.26454466  0.08905453    -0.76200
O39         O  0.56913295  0.36597909  0.20363142    -0.81400
C40         C  0.61088148  0.40276997  0.12423257     0.99600
C41         C  0.59602563  0.40192224  0.22719626     1.05600
O42         O  0.64583659  0.42464187  0.14326817    -0.77000
C43         C  0.58556148  0.25345655  0.07960779     1.03900
N44         N  0.08636597  0.60675626  0.02304282    -0.02600
C45         C  0.04467508  0.59743683  0.03158923     0.00000
C46         C  0.03699233  0.61884401  0.34931169    -0.22900
C47         C  0.07149110  0.63855158  0.32774655    -0.23100
C48         C  0.10322838  0.63115252  0.33384264    -0.00100
H49         H  0.00511247  0.61431935  0.34772170     0.13700
H50         H  0.07210798  0.65343293  0.30752545     0.13700
N51         N  0.45067351  0.93476433  0.03979868    -0.02600
C52         C  0.46954685  0.97993546  0.04581877     0.00000
C53         C  0.48541734  0.00422969  0.08218876    -0.22900
C54         C  0.47579245  0.97299468  0.09930982    -0.23100
C55         C  0.45425816  0.93074858  0.07281269    -0.00100
H56         H  0.50195553  0.04068835  0.09495718     0.13700
H57         H  0.48211647  0.98024942  0.12841020     0.13700
N58         N  0.41399346  0.55642666  0.28515133    -0.02600
C59         C  0.43068122  0.52854810  0.27845979     0.00000
C60         C  0.43189910  0.50778319  0.24028885    -0.22900
C61         C  0.41492436  0.52292551  0.22278113    -0.23100
C62         C  0.40405494  0.55241202  0.25089989    -0.00100
H63         H  0.44466157  0.48489671  0.22665292     0.13700
H64         H  0.41133307  0.51387152  0.19279843     0.13700
Fe65       Fe  0.27561800  0.62809432  0.14795936     1.65800
Fe66       Fe  0.37811080  0.72017554  0.16327045     1.73200
Fe67       Fe  0.29026671  0.73561460  0.17875758     1.54400
O68         O  0.23992144  0.69446388  0.14014807    -0.80800
O69         O  0.38640453  0.76590808  0.21670620    -0.79100
O70         O  0.23619451  0.62740357  0.11383870    -0.83300
O71         O  0.23563559  0.63341989  0.19421092    -0.78100
O72         O  0.32725876  0.76879884  0.14056528    -0.79900
O73         O  0.37572318  0.67716046  0.18792722    -0.82700
C74         C  0.23226044  0.66582249  0.21969158     0.98100
C75         C  0.22303962  0.65473660  0.11688255     1.05500
O76         O  0.31464671  0.69445923  0.16301004    -1.11600
O77         O  0.37787820  0.67705159  0.10999212    -0.74100
O78         O  0.31220327  0.61566699  0.10070779    -0.77600
O79         O  0.25224512  0.70601548  0.21828725    -0.78200
C80         C  0.35103457  0.63745989  0.09015078     0.97000
O81         O  0.30857824  0.61880739  0.18001110    -0.76200
O82         O  0.38873044  0.76728118  0.13920848    -0.81400
C83         C  0.36893350  0.79010019  0.23385575     0.99600
C84         C  0.36664039  0.78132863  0.13101385     1.05600
O85         O  0.33544444  0.78414146  0.22104332    -0.77000
C86         C  0.34692626  0.63989470  0.19275590     1.03900
C87         C  0.33255052  0.57304613  0.20901637    -0.20400
C88         C  0.35886928  0.61938304  0.21290846    -0.08400
C89         C  0.39769601  0.64461435  0.23408082     0.30400
C90         C  0.41074112  0.62315551  0.24909195    -0.20400
C91         C  0.38548812  0.57648709  0.24321614    -0.08500
C92         C  0.34593164  0.55168898  0.22370356     0.30400
F93         F  0.32124800  0.50632884  0.21737779    -0.19000
H94         H  0.30253649  0.55271996  0.19299510     0.18800
H95         H  0.44185698  0.64246653  0.26328438     0.18800
F96         F  0.42384927  0.68960488  0.23922702    -0.19000
C97         C  0.35801013  0.54949573  0.00044342    -0.20400
C98         C  0.39918785  0.57508283  0.98714390    -0.08400
C99         C  0.42391627  0.62123125  0.00698558     0.30400
C100        C  0.40787169  0.64128251  0.04004693    -0.20400
C101        C  0.36651643  0.61581478  0.05381200    -0.08500
C102        C  0.34162522  0.56944831  0.03331563     0.30400
F103        F  0.30165099  0.54310816  0.04505813    -0.19000
H104        H  0.33836310  0.51397226  0.98493935     0.18800
H105        H  0.42797900  0.67694240  0.05487805     0.18800
F106        F  0.46354508  0.64684779  0.99430730    -0.19000
C107        C  0.42066422  0.82892253  0.28811644    -0.20400
C108        C  0.38828592  0.82656368  0.27008696    -0.08400
C109        C  0.37513887  0.85953459  0.28701427     0.30400
C110        C  0.39408050  0.89370193  0.32090000    -0.20400
C111        C  0.42649777  0.89596937  0.33858749    -0.08500
C112        C  0.43956747  0.86317452  0.32193233     0.30400
F113        F  0.47162886  0.86512496  0.33781525    -0.19000
H114        H  0.43161638  0.80428728  0.27595626     0.18800
H115        H  0.38362583  0.91871029  0.33337210     0.18800
F116        F  0.34458144  0.85945389  0.27063858    -0.19000
C117        C  0.38795688  0.85903430  0.07614123    -0.20400
C118        C  0.43276642  0.88833015  0.08209960    -0.08400
C119        C  0.45585078  0.88014984  0.10152035     0.30400
C120        C  0.43420951  0.84381968  0.11560126    -0.20400
C121        C  0.38897546  0.81561683  0.11139672    -0.08500
C122        C  0.36600428  0.82306582  0.09093173     0.30400
F123        F  0.32237441  0.79639547  0.08596333    -0.19000
H124        H  0.36959399  0.86542481  0.06176337     0.18800
H125        H  0.45271090  0.83911863  0.13141446     0.18800
F126        F  0.49917862  0.90818664  0.10787568    -0.19000
C127        C  0.12653950  0.64849681  0.08251025    -0.20400
C128        C  0.11670504  0.61379117  0.04799169    -0.08400
C129        C  0.14091102  0.59113425  0.03655008     0.30400
C130        C  0.17501043  0.60383542  0.05921277    -0.20400
C131        C  0.18602123  0.63994593  0.09324561    -0.08500
C132        C  0.16077618  0.66168401  0.10487485     0.30400
F133        F  0.16904885  0.69583288  0.13791317    -0.19000
H134        H  0.10849259  0.66661806  0.09143838     0.18800
H135        H  0.19348687  0.58617843  0.04969267     0.18800
F136        F  0.13185644  0.55714512  0.00340469    -0.19000
C137        C  0.17403517  0.68341461  0.31255543    -0.20400
C138        C  0.14156376  0.63899434  0.30967872    -0.08400
C139        C  0.14099779  0.60303758  0.27872960     0.30400
C140        C  0.17184154  0.61173581  0.25036133    -0.20400
C141        C  0.20322697  0.65650080  0.25208953    -0.08500
C142        C  0.20484591  0.69227914  0.28425060     0.30400
F143        F  0.23522491  0.73604281  0.28792583    -0.19000
H144        H  0.17427215  0.71145741  0.33595952     0.18800
H145        H  0.16965875  0.58353691  0.22608806     0.18800
F146        F  0.10848700  0.55987412  0.27442373    -0.19000
C147        C  0.46081878  0.47378328  0.99596511    -0.20400
C148        C  0.49564604  0.51222691  0.01825420    -0.08400
C149        C  0.50600457  0.55748017  0.35279294     0.30400
C150        C  0.48290863  0.56212582  0.33043661    -0.20400
C151        C  0.44960199  0.52369400  0.30656749    -0.08500
C152        C  0.43777050  0.47828506  0.97342486     0.30400
F153        F  0.40446935  0.44054326  0.95169347    -0.19000
H154        H  0.45077151  0.44043987  0.99669302     0.18800
H155        H  0.49221644  0.59566251  0.33065482     0.18800
F156        F  0.53860909  0.59527054  0.37523033    -0.19000
C157        C  0.62446718  0.47286893  0.11452281    -0.20400
C158        C  0.60289342  0.42532932  0.10339206    -0.08400
C159        C  0.57049834  0.40022981  0.07523770     0.30400
C160        C  0.55709552  0.42238518  0.06154394    -0.20400
C161        C  0.57574776  0.46963467  0.07564562    -0.08500
C162        C  0.61086707  0.49489173  0.10095615     0.30400
F163        F  0.63030682  0.54080739  0.11426243    -0.19000
H164        H  0.64991659  0.49307789  0.13569328     0.18800
H165        H  0.52985718  0.40234347  0.04216975     0.18800
F166        F  0.55018305  0.35425342  0.06235495    -0.19000
C167        C  0.60860587  0.46650817  0.28679687    -0.20400
C168        C  0.57992060  0.42323148  0.26319847    -0.08400
C169        C  0.53637573  0.40120695  0.27466851     0.30400
C170        C  0.52248167  0.42191137  0.30894680    -0.20400
C171        C  0.55126525  0.46512207  0.33206328    -0.08500
C172        C  0.59448721  0.48715668  0.32076342     0.30400
F173        F  0.62222334  0.52883293  0.01005247    -0.19000
H174        H  0.64223856  0.48452519  0.27907292     0.18800
H175        H  0.48958502  0.40357106  0.31801225     0.18800
F176        F  0.50739187  0.35921948  0.25338609    -0.19000
C177        C  0.46455059  0.05489675  0.33522409    -0.20400
C178        C  0.48050734  0.04199952  0.29929262    -0.08400
C179        C  0.49074798  0.00711195  0.28926634     0.30400
C180        C  0.48956473  0.98855611  0.98214932    -0.20400
C181        C  0.47345076  0.00125355  0.01806734    -0.08500
C182        C  0.45896952  0.03335290  0.36100349     0.30400
F183        F  0.44225523  0.04554653  0.39526765    -0.19000
H184        H  0.45538037  0.08085573  0.34298896     0.18800
H185        H  0.49893482  0.96274944  0.97437123     0.18800
F186        F  0.51020751  0.99681106  0.92160726    -0.19000
C187        C  0.55985012  0.17952964  0.23665376    -0.20400
C188        C  0.51459965  0.15270360  0.23538210    -0.08400
C189        C  0.48943579  0.16274533  0.22028734     0.30400
C190        C  0.50961719  0.19809530  0.20495381    -0.20400
C191        C  0.55508360  0.22300199  0.20379433    -0.08500
C192        C  0.58010991  0.21436368  0.22081678     0.30400
F193        F  0.62414006  0.23878842  0.22129674    -0.19000
H194        H  0.57960145  0.17186999  0.24801685     0.18800
H195        H  0.48976977  0.20441895  0.19224237     0.18800
F196        F  0.44547947  0.13740103  0.21932845    -0.19000
C197        C  0.52828871  0.21016272  0.02907981    -0.20400
C198        C  0.56612415  0.21763048  0.04302139    -0.08400
C199        C  0.58342858  0.18889169  0.02259897     0.30400
C200        C  0.56265409  0.15320334  0.98985164    -0.20400
C201        C  0.52485018  0.14587331  0.97639490    -0.08500
C202        C  0.50804761  0.17490478  0.99602940     0.30400
F203        F  0.47112393  0.16804330  0.98384028    -0.19000
H204        H  0.51401444  0.23141454  0.04396890     0.18800
H205        H  0.57191851  0.12619015  0.31066641     0.18800
F206        F  0.61974846  0.19435478  0.03465497    -0.19000
C207        C  0.93363254  0.51436136  0.04830399    -0.20400
C208        C  0.93702083  0.47516164  0.02959499    -0.08400
C209        C  0.97787297  0.47839731  0.02875580     0.30400
C210        C  0.01541642  0.52094687  0.03673452    -0.20400
C211        C  0.01206433  0.56022987  0.04658607    -0.08500
C212        C  0.97114948  0.55688108  0.05746426     0.30400
F213        F  0.96698704  0.59459043  0.07056289    -0.19000
H214        H  0.90261643  0.51306438  0.05067468     0.18800
H215        H  0.04648229  0.52233171  0.02956378     0.18800
F216        F  0.98194111  0.44065555  0.01409290    -0.19000
C217        C  0.80280135  0.43269730  0.28381024    -0.20400
C218        C  0.80824977  0.39665456  0.28229397    -0.08400
C219        C  0.77928593  0.35253325  0.26090638     0.30400
C220        C  0.74688130  0.34491000  0.23950705    -0.20400
C221        C  0.74331888  0.38132218  0.23841980    -0.08500
C222        C  0.77066061  0.42528882  0.26204922     0.30400
F223        F  0.76855931  0.46155536  0.26221996    -0.19000
H224        H  0.82553117  0.46708569  0.29968699     0.18800
H225        H  0.72601564  0.31056108  0.22220986     0.18800
F226        F  0.78393760  0.31715229  0.25909697    -0.19000
C227        C  0.78794259  0.37217603  0.06940814    -0.20400
C228        C  0.76561652  0.39672359  0.08379422    -0.08400
C229        C  0.77845207  0.43465286  0.07261679     0.30400
C230        C  0.81155139  0.44615521  0.04624981    -0.20400
C231        C  0.83306092  0.42093926  0.03156246    -0.08500
C232        C  0.82148928  0.38431744  0.04376153     0.30400
F233        F  0.84132747  0.35890542  0.02926577    -0.19000
H234        H  0.77915557  0.34320480  0.07776344     0.18800
H235        H  0.81981949  0.47407855  0.03663851     0.18800
F236        F  0.75788153  0.45942593  0.08586765    -0.19000
N237        N  0.86354102  0.42828434  0.33218535    -0.02600
C238        C  0.90555531  0.43803186  0.33133445     0.00000
C239        C  0.91546362  0.42377826  0.62875020    -0.22900
C240        C  0.87953361  0.40418993  0.60691240    -0.23100
C241        C  0.84779110  0.40902512  0.63099502    -0.00100
H242        H  0.94737043  0.42968848  0.61810053     0.13700
H243        H  0.87772463  0.39085724  0.57654209     0.13700
N244        N  0.50138582  0.10946781  0.61159625    -0.01500
C245        C  0.48298394  0.06469511  0.60666485     0.00000
C246        C  0.46454732  0.03916767  0.57121058    -0.22900
C247        C  0.47188335  0.06940213  0.55369546    -0.23100
C248        C  0.49462521  0.11219462  0.57909705    -0.00100
H249        H  0.44760729  0.00259336  0.55940692     0.13700
H250        H  0.46327756  0.06115448  0.52502584     0.13700
N251        N  0.53830581  0.48489215  0.36874499    -0.02600
C252        C  0.51766659  0.50950758  0.37769093     0.00000
C253        C  0.51937130  0.53082510  0.41605324    -0.22900
C254        C  0.54213656  0.51938217  0.43130728    -0.23100
C255        C  0.55358090  0.49157310  0.40169842    -0.00100
H256        H  0.50527787  0.55213283  0.43129726     0.13700
H257        H  0.54881341  0.52941963  0.46084838     0.13700
Fe258      Fe  0.66026354  0.30428355  0.47119865     1.65800
Fe259      Fe  0.57285255  0.32103606  0.48481383     1.73200
Fe260      Fe  0.67545086  0.41216204  0.50697893     1.54400
O261        O  0.70920613  0.40720722  0.54232989    -0.80800
O262        O  0.58114462  0.36297304  0.45614203    -0.79100
O263        O  0.69858088  0.33691529  0.51844937    -0.83300
O264        O  0.71047098  0.34232963  0.44134635    -0.78100
O265        O  0.63664255  0.42207455  0.55221280    -0.79900
O266        O  0.56511540  0.27165152  0.43322643    -0.82700
C267        C  0.73041176  0.38342749  0.44213517     0.98100
C268        C  0.71497206  0.37581356  0.54302303     1.05500
O269        O  0.63622936  0.34585537  0.48756245    -1.11600
O270        O  0.55895855  0.27674811  0.51307248    -0.74100
O271        O  0.61381197  0.26204277  0.49980918    -0.77600
O272        O  0.72030093  0.41236108  0.46462455    -0.78200
C273        C  0.57774593  0.25624564  0.51534588     0.97000
O274        O  0.62434775  0.26489886  0.42171902    -0.76200
O275        O  0.56949179  0.36588390  0.53628584    -0.81400
C276        C  0.61057475  0.40222847  0.45552673     0.99600
C277        C  0.59642077  0.40256701  0.55926334     1.05600
O278        O  0.64604262  0.42436606  0.47386704    -0.77000
C279        C  0.58696133  0.25370867  0.41223563     1.03900
N280        N  0.08998154  0.60787221  0.35863706    -0.02600
C281        C  0.04863932  0.59967800  0.36791835     0.00000
C282        C  0.03674772  0.62123321  0.68278795    -0.22900
C283        C  0.07151197  0.64122631  0.66151581    -0.23100
C284        C  0.10299151  0.63340831  0.66752161    -0.00100
H285        H  0.00498431  0.61699857  0.68123788     0.13700
H286        H  0.07247712  0.65659919  0.64155720     0.13700
N287        N  0.44704879  0.93232331  0.37276836    -0.02600
C288        C  0.46569638  0.97744744  0.37882672     0.00000
C289        C  0.48289581  0.00184159  0.41476233    -0.22900
C290        C  0.47451923  0.97067577  0.43152474    -0.23100
C291        C  0.45235769  0.92839030  0.40524861    -0.00100
H292        H  0.49986123  0.03832216  0.42735169     0.13700
H293        H  0.48232080  0.97800798  0.46022414     0.13700
N294        N  0.41021171  0.55051652  0.61907494    -0.02600
C295        C  0.42700130  0.52286490  0.61288034     0.00000
C296        C  0.43249919  0.50543666  0.57481819    -0.22900
C297        C  0.41873332  0.52305132  0.55693715    -0.23100
C298        C  0.40509581  0.55027233  0.58474060    -0.00100
H299        H  0.44740614  0.48446226  0.56169063     0.13700
H300        H  0.41975077  0.51771550  0.52706217     0.13700
Fe301      Fe  0.27893577  0.62924776  0.48451684     1.65800
Fe302      Fe  0.38147645  0.72151830  0.49863874     1.73200
Fe303      Fe  0.29357710  0.73661078  0.51409507     1.54400
O304        O  0.24298523  0.69491351  0.47576839    -0.80800
O305        O  0.39019799  0.76762114  0.55223221    -0.79100
O306        O  0.23962987  0.62798178  0.44976387    -0.83300
O307        O  0.23866937  0.63516651  0.53044824    -0.78100
O308        O  0.33007125  0.76863419  0.47518511    -0.79900
O309        O  0.37934597  0.67853156  0.52286391    -0.82700
C310        C  0.23517605  0.66772461  0.55556543     0.98100
C311        C  0.22627214  0.65511273  0.45261441     1.05500
O312        O  0.31795624  0.69559101  0.49886213    -1.11600
O313        O  0.38062513  0.67820455  0.44529944    -0.74100
O314        O  0.31549474  0.61616607  0.43739219    -0.77600
O315        O  0.25569323  0.70789675  0.55408992    -0.78200
C316        C  0.35384011  0.63821966  0.42603941     0.97000
O317        O  0.31202343  0.62075464  0.51733352    -0.76200
O318        O  0.39202691  0.76833733  0.47437503    -0.81400
C319        C  0.37266218  0.79187364  0.56906716     0.99600
C320        C  0.36938810  0.78125680  0.46544522     1.05600
O321        O  0.33913488  0.78555713  0.55598354    -0.77000
C322        C  0.35099096  0.64175113  0.52867802     1.03900
C323        C  0.33345834  0.58382671  0.55901832    -0.20400
C324        C  0.36455483  0.62195501  0.54826431    -0.08400
C325        C  0.40897965  0.63898482  0.55412717     0.30400
C326        C  0.42169111  0.61663995  0.56812126    -0.20400
C327        C  0.39066543  0.57769327  0.57717665    -0.08500
C328        C  0.34644584  0.56185788  0.57346482     0.30400
F329        F  0.31605745  0.52378170  0.58181580    -0.19000
H330        H  0.29913321  0.57011816  0.55513282     0.18800
H331        H  0.45596420  0.62875124  0.57056412     0.18800
F332        F  0.44044467  0.67574982  0.54451900    -0.19000
C333        C  0.35942555  0.55066773  0.33512597    -0.20400
C334        C  0.39958337  0.57678283  0.32071060    -0.08400
C335        C  0.42434870  0.62292158  0.34058329     0.30400
C336        C  0.40911252  0.64257442  0.37445639    -0.20400
C337        C  0.36868236  0.61666089  0.38921828    -0.08500
C338        C  0.34395225  0.57017729  0.36895396     0.30400
F339        F  0.30507959  0.54329475  0.38186440    -0.19000
H340        H  0.33995821  0.51501751  0.31987732     0.18800
H341        H  0.42915430  0.67829187  0.38915325     0.18800
F342        F  0.46338989  0.64887415  0.32732165    -0.19000
C343        C  0.42510655  0.83304767  0.62344721    -0.20400
C344        C  0.39176310  0.82891293  0.60522486    -0.08400
C345        C  0.37705082  0.86064926  0.62202528     0.30400
C346        C  0.39535252  0.89528612  0.65582925    -0.20400
C347        C  0.42845151  0.89915350  0.67383012    -0.08500
C348        C  0.44318948  0.86768040  0.65740953     0.30400
F349        F  0.47577753  0.87112031  0.67384101    -0.19000
H350        H  0.43725753  0.80941141  0.61143495     0.18800
H351        H  0.38354546  0.91918338  0.66820603     0.18800
F352        F  0.34521280  0.85869953  0.60578574    -0.19000
C353        C  0.38747583  0.85603467  0.40899552    -0.20400
C354        C  0.43223996  0.88595745  0.41430189    -0.08400
C355        C  0.45661334  0.87829573  0.43283347     0.30400
C356        C  0.43608101  0.84248110  0.44752148    -0.20400
C357        C  0.39079178  0.81420680  0.44456609    -0.08500
C358        C  0.36672306  0.82041363  0.42412586     0.30400
F359        F  0.32311478  0.79297501  0.41966930    -0.19000
H360        H  0.36819493  0.86174533  0.39498794     0.18800
H361        H  0.45546905  0.83838568  0.46293582     0.18800
F362        F  0.50009746  0.90644593  0.43785418    -0.19000
C363        C  0.12858651  0.64735125  0.41891599    -0.20400
C364        C  0.12006311  0.61422041  0.38351089    -0.08400
C365        C  0.14549421  0.59289102  0.37133006     0.30400
C366        C  0.17949652  0.60542893  0.39406455    -0.20400
C367        C  0.18918759  0.64007830  0.42894496    -0.08500
C368        C  0.16271021  0.66038000  0.44135053     0.30400
F369        F  0.16972075  0.69301081  0.47522875    -0.19000
H370        H  0.10966033  0.66452254  0.42852069     0.18800
H371        H  0.19899245  0.58891946  0.38394021     0.18800
F372        F  0.13779691  0.56042744  0.33737512    -0.19000
C373        C  0.17432792  0.68569738  0.64679229    -0.20400
C374        C  0.14155460  0.64131404  0.64365174    -0.08400
C375        C  0.14147068  0.60528987  0.61309704     0.30400
C376        C  0.17322301  0.61385899  0.58539808    -0.20400
C377        C  0.20514144  0.65856368  0.58744161    -0.08500
C378        C  0.20610298  0.69443252  0.61917916     0.30400
F379        F  0.23684888  0.73814570  0.62310196    -0.19000
H380        H  0.17423712  0.71378406  0.66992228     0.18800
H381        H  0.17142848  0.58560699  0.56137454     0.18800
F382        F  0.10869426  0.56218249  0.60850589    -0.19000
C383        C  0.46196941  0.47578520  0.32838047    -0.20400
C384        C  0.49610240  0.51416749  0.35145537    -0.08400
C385        C  0.50538349  0.55604312  0.68600570     0.30400
C386        C  0.48033622  0.55902242  0.66423873    -0.20400
C387        C  0.44676403  0.51960724  0.64137393    -0.08500
C388        C  0.43908980  0.48040978  0.30580201     0.30400
F389        F  0.40650570  0.44264689  0.28332765    -0.19000
H390        H  0.45222445  0.44231737  0.32853262     0.18800
H391        H  0.48837275  0.59202405  0.66395837     0.18800
F392        F  0.53834370  0.59474803  0.70731250    -0.19000
C393        C  0.62577387  0.47150798  0.44314003    -0.20400
C394        C  0.60207352  0.42411242  0.43429003    -0.08400
C395        C  0.56743771  0.39897644  0.40820255     0.30400
C396        C  0.55415970  0.42132712  0.39462740    -0.20400
C397        C  0.57508464  0.46874362  0.40686255    -0.08500
C398        C  0.61221838  0.49370806  0.42976349     0.30400
F399        F  0.63381660  0.53969201  0.44096410    -0.19000
H400        H  0.65303258  0.49173041  0.46252905     0.18800
H401        H  0.52546093  0.40161980  0.37692144     0.18800
F402        F  0.54488537  0.35299905  0.39737312    -0.19000
C403        C  0.60980786  0.46737711  0.61892013    -0.20400
C404        C  0.58084089  0.42393089  0.59570590    -0.08400
C405        C  0.53778092  0.40175362  0.60818208     0.30400
C406        C  0.52465843  0.42252241  0.64298556    -0.20400
C407        C  0.55373610  0.46594888  0.66570275    -0.08500
C408        C  0.59648086  0.48805460  0.65340778     0.30400
F409        F  0.62324879  0.52847890  0.34312228    -0.19000
H410        H  0.64310748  0.48553977  0.61049630     0.18800
H411        H  0.49215945  0.40407529  0.65271354     0.18800
F412        F  0.50854677  0.35960946  0.58734597    -0.19000
C413        C  0.46260234  0.05661134  0.67034646    -0.20400
C414        C  0.48052354  0.04498003  0.63512904    -0.08400
C415        C  0.49306661  0.01195165  0.62621222     0.30400
C416        C  0.48553523  0.98584600  0.31515400    -0.20400
C417        C  0.46946294  0.99864934  0.35106961    -0.08500
C418        C  0.45680960  0.03518776  0.69632936     0.30400
F419        F  0.43797688  0.04594064  0.72975952    -0.19000
H420        H  0.45198293  0.08135984  0.67729660     0.18800
H421        H  0.49459681  0.95980142  0.30732453     0.18800
F422        F  0.50648576  0.99418176  0.25467756    -0.19000
C423        C  0.56061690  0.17998865  0.56961470    -0.20400
C424        C  0.51528235  0.15383121  0.56885428    -0.08400
C425        C  0.49046745  0.16411933  0.55359361     0.30400
C426        C  0.51099044  0.19909983  0.53779532    -0.20400
C427        C  0.55649104  0.22348205  0.53630967    -0.08500
C428        C  0.58122467  0.21445752  0.55329033     0.30400
F429        F  0.62527415  0.23826875  0.55343349    -0.19000
H430        H  0.58012741  0.17212109  0.58105314     0.18800
H431        H  0.49131014  0.20565678  0.52512448     0.18800
F432        F  0.44646991  0.13945107  0.55303825    -0.19000
C433        C  0.53077591  0.21189037  0.36108994    -0.20400
C434        C  0.56711520  0.21743356  0.37592538    -0.08400
C435        C  0.58202167  0.18622181  0.35693443     0.30400
C436        C  0.56032830  0.15006522  0.32463768    -0.20400
C437        C  0.52394519  0.14466840  0.31028217    -0.08500
C438        C  0.50959560  0.17614635  0.32859718     0.30400
F439        F  0.47414399  0.17138939  0.31562356    -0.19000
H440        H  0.51836621  0.23508911  0.37488401     0.18800
H441        H  0.57362439  0.13010467  0.64307878     0.18800
F442        F  0.61672501  0.18971486  0.37005498    -0.19000
C443        C  0.93600856  0.51416608  0.38019060    -0.20400
C444        C  0.93925132  0.47512056  0.36014404    -0.08400
C445        C  0.98013845  0.47809739  0.35847402     0.30400
C446        C  0.01775224  0.52058342  0.36781062    -0.20400
C447        C  0.01465389  0.56021234  0.37983259    -0.08500
C448        C  0.97359393  0.55655109  0.39072461     0.30400
F449        F  0.96948100  0.59425239  0.40596014    -0.19000
H450        H  0.90505466  0.51308143  0.38314565     0.18800
H451        H  0.04885920  0.52207407  0.36048890     0.18800
F452        F  0.98422924  0.44044500  0.34241859    -0.19000
C453        C  0.80317922  0.43626689  0.61728097    -0.20400
C454        C  0.80706386  0.39991316  0.61751699    -0.08400
C455        C  0.77672513  0.35561522  0.59772212     0.30400
C456        C  0.74486991  0.34798311  0.57566634    -0.20400
C457        C  0.74314323  0.38450739  0.57247341    -0.08500
C458        C  0.77146815  0.42880452  0.59497102     0.30400
F459        F  0.77084834  0.46516102  0.59335266    -0.19000
H460        H  0.82682355  0.47073457  0.63211999     0.18800
H461        H  0.72299843  0.31341386  0.55946208     0.18800
F462        F  0.77960395  0.31993218  0.59795256    -0.19000
C463        C  0.78867802  0.37267081  0.40094646    -0.20400
C464        C  0.76720402  0.39805868  0.41599571    -0.08400
C465        C  0.78111388  0.43668814  0.40541381     0.30400
C466        C  0.81424601  0.44794548  0.37896163    -0.20400
C467        C  0.83484668  0.42184988  0.36360494    -0.08500
C468        C  0.82224955  0.38455636  0.37523545     0.30400
F469        F  0.84103240  0.35818847  0.36003647    -0.19000
H470        H  0.77914522  0.34314656  0.40876761     0.18800
H471        H  0.82318407  0.47635353  0.36976151     0.18800
F472        F  0.76159869  0.46246910  0.41933085    -0.19000
N473        N  0.86263711  0.43070741  0.66688473    -0.02600
C474        C  0.90452322  0.44004291  0.66566722     0.00000
C475        C  0.91647594  0.42308178  0.96355230    -0.22900
C476        C  0.88117829  0.40339555  0.94088757    -0.23100
C477        C  0.84845391  0.40685421  0.96429779    -0.00100
H478        H  0.94886009  0.43001867  0.95369044     0.13700
H479        H  0.88043035  0.39099249  0.91048208     0.13700
N480        N  0.50310917  0.10856230  0.94310672    -0.01500
C481        C  0.48527018  0.06376059  0.93784215     0.00000
C482        C  0.46693144  0.03832229  0.90233935    -0.22900
C483        C  0.47378902  0.06857867  0.88509213    -0.23100
C484        C  0.49612345  0.11131813  0.91069399    -0.00100
H485        H  0.45033059  0.00177117  0.89031664     0.13700
H486        H  0.46511576  0.06039390  0.85645687     0.13700
N487        N  0.54142358  0.48639408  0.70253928    -0.02600
C488        C  0.52039663  0.51064802  0.71130295     0.00000
C489        C  0.52315787  0.53334825  0.74944099    -0.22900
C490        C  0.54692006  0.52320349  0.76483037    -0.23100
C491        C  0.55799376  0.49476051  0.73553576    -0.00100
H492        H  0.50889999  0.55454783  0.76449643     0.13700
H493        H  0.55422085  0.53427863  0.79437248     0.13700
Fe494      Fe  0.66061613  0.30498945  0.80483570     1.65800
Fe495      Fe  0.57344612  0.32220501  0.81908135     1.73200
Fe496      Fe  0.67595957  0.41282978  0.84285121     1.54400
O497        O  0.70902812  0.40639410  0.87762917    -0.80800
O498        O  0.58258852  0.36524382  0.79124667    -0.79100
O499        O  0.69923875  0.33653725  0.85172233    -0.83300
O500        O  0.71059554  0.34359059  0.77542647    -0.78100
O501        O  0.63664997  0.42188991  0.88796654    -0.79900
O502        O  0.56574731  0.27365539  0.76719774    -0.82700
C503        C  0.73091051  0.38505761  0.77734151     0.98100
C504        C  0.71531807  0.37485595  0.87704337     1.05500
O505        O  0.63671261  0.34670183  0.82220015    -1.11600
O506        O  0.55911099  0.27688807  0.84637526    -0.74100
O507        O  0.61413276  0.26233201  0.83295662    -0.77600
O508        O  0.72122105  0.41387850  0.80074619    -0.78200
C509        C  0.57794625  0.25627468  0.84832771     0.97000
O510        O  0.62472369  0.26654462  0.75541867    -0.76200
O511        O  0.56963738  0.36616156  0.87077564    -0.81400
C512        C  0.61228800  0.40472904  0.79143379     0.99600
C513        C  0.59624306  0.40235831  0.89431868     1.05600
O514        O  0.64733253  0.42640658  0.81028912    -0.77000
C515        C  0.58747056  0.25574038  0.74602497     1.03900
N516        N  0.08932835  0.60961329  0.69194075    -0.02600
C517        C  0.04805202  0.60157639  0.70114655     0.00000
C518        C  0.03160201  0.61295835  0.01042631    -0.22900
C519        C  0.06586517  0.63205291  0.98838547    -0.23100
C520        C  0.09879933  0.62781678  0.99672968    -0.00100
H521        H  0.99919593  0.60672066  0.00800599     0.13700
H522        H  0.06581773  0.64482842  0.96680408     0.13700
N523        N  0.44720140  0.93525678  0.70857805    -0.02600
C524        C  0.46444091  0.98034542  0.71518857     0.00000
C525        C  0.47846465  0.00432862  0.75207833    -0.22900
C526        C  0.46943356  0.97295786  0.76885943    -0.23100
C527        C  0.45007187  0.93091665  0.74165164    -0.00100
H528        H  0.49358361  0.04066818  0.76535859     0.13700
H529        H  0.47487834  0.97992523  0.79811370     0.13700
N530        N  0.41400283  0.55463600  0.95192071    -0.02600
C531        C  0.42998428  0.52619822  0.94532673     0.00000
C532        C  0.43217974  0.50623100  0.90712789    -0.22900
C533        C  0.41659700  0.52257045  0.88953247    -0.23100
C534        C  0.40558664  0.55188897  0.91767375    -0.00100
H535        H  0.44499564  0.48338091  0.89356398     0.13700
H536        H  0.41407659  0.51446619  0.85953896     0.13700
Fe537      Fe  0.27713900  0.62865922  0.81693338     1.65800
Fe538      Fe  0.37993066  0.72012966  0.83047818     1.73200
Fe539      Fe  0.29258260  0.73616041  0.84728961     1.54400
O540        O  0.24093625  0.69421249  0.80994273    -0.80800
O541        O  0.38919110  0.76583714  0.88432476    -0.79100
O542        O  0.23876490  0.62806436  0.78184474    -0.83300
O543        O  0.23667048  0.63484812  0.86235196    -0.78100
O544        O  0.32803713  0.76751255  0.80769619    -0.79900
O545        O  0.37773439  0.67643212  0.85422832    -0.82700
C546        C  0.23416529  0.66738700  0.88837336     0.98100
C547        C  0.22471825  0.65495793  0.78587827     1.05500
O548        O  0.31655906  0.69480233  0.83130668    -1.11600
O549        O  0.37837706  0.67705730  0.77671675    -0.74100
O550        O  0.31360922  0.61474677  0.77029329    -0.77600
O551        O  0.25588167  0.70802273  0.88800092    -0.78200
C552        C  0.35154722  0.63663097  0.75828188     0.97000
O553        O  0.30957612  0.62030862  0.85024575    -0.76200
O554        O  0.39026250  0.76766325  0.80698980    -0.81400
C555        C  0.37256578  0.79097282  0.90118802     0.99600
C556        C  0.36750487  0.78063257  0.79824960     1.05600
O557        O  0.33933275  0.78545743  0.88827001    -0.77000
C558        C  0.34864132  0.64047774  0.86105590     1.03900
C559        C  0.33288647  0.57531823  0.88074025    -0.20400
C560        C  0.36111082  0.62035438  0.88118216    -0.08400
C561        C  0.40220526  0.64434868  0.89866365     0.30400
C562        C  0.41544693  0.62261559  0.91308199    -0.20400
C563        C  0.38809623  0.57697511  0.91033942    -0.08500
C564        C  0.34640873  0.55368464  0.89493024     0.30400
F565        F  0.31958410  0.50939242  0.89211983    -0.19000
H566        H  0.30104719  0.55602206  0.86775806     0.18800
H567        H  0.44794785  0.64070070  0.92455168     0.18800
F568        F  0.43025079  0.68821264  0.90068232    -0.19000
C569        C  0.36055653  0.54585442  0.67287027    -0.20400
C570        C  0.39637393  0.57217580  0.65432030    -0.08400
C571        C  0.41678316  0.61955588  0.66946066     0.30400
C572        C  0.40185060  0.64021969  0.70296855    -0.20400
C573        C  0.36574682  0.61404315  0.72175303    -0.08500
C574        C  0.34502376  0.56636828  0.70604627     0.30400
F575        F  0.31030758  0.53942342  0.72302119    -0.19000
H576        H  0.34427606  0.50924757  0.66121171     0.18800
H577        H  0.41856811  0.67686911  0.71418758     0.18800
F578        F  0.45156811  0.64574984  0.65207437    -0.19000
C579        C  0.42529619  0.83120504  0.95522620    -0.20400
C580        C  0.39241610  0.82806138  0.93718213    -0.08400
C581        C  0.37890952  0.86079103  0.95401808     0.30400
C582        C  0.39794292  0.89542725  0.98768316    -0.20400
C583        C  0.43065301  0.89834985  0.00546747    -0.08500
C584        C  0.44413180  0.86583868  0.98900555     0.30400
F585        F  0.47633851  0.86832102  0.00516130    -0.19000
H586        H  0.43653866  0.80680129  0.94319472     0.18800
H587        H  0.38711578  0.92014336  0.00004567     0.18800
F588        F  0.34761830  0.85985283  0.93790391    -0.19000
C589        C  0.38628963  0.85619247  0.74220493    -0.20400
C590        C  0.43038432  0.88805465  0.75003736    -0.08400
C591        C  0.45420182  0.88172167  0.77041948     0.30400
C592        C  0.43380596  0.84505976  0.78405758    -0.20400
C593        C  0.38908290  0.81459071  0.77834562    -0.08500
C594        C  0.36558183  0.81973918  0.75641415     0.30400
F595        F  0.32254283  0.79035054  0.74953347    -0.19000
H596        H  0.36733428  0.86089883  0.72688662     0.18800
H597        H  0.45267034  0.84195611  0.80087194     0.18800
F598        F  0.49692605  0.91196582  0.77829277    -0.19000
C599        C  0.12890111  0.65003743  0.75167170    -0.20400
C600        C  0.11908497  0.61568043  0.71691897    -0.08400
C601        C  0.14289423  0.59259767  0.70536774     0.30400
C602        C  0.17663187  0.60459789  0.72812397    -0.20400
C603        C  0.18767668  0.64042734  0.76236526    -0.08500
C604        C  0.16273527  0.66250520  0.77412832     0.30400
F605        F  0.17104029  0.69646691  0.80730443    -0.19000
H606        H  0.11120630  0.66853003  0.76070613     0.18800
H607        H  0.19488449  0.58670425  0.71846617     0.18800
F608        F  0.13394071  0.55901206  0.67197090    -0.19000
C609        C  0.17031106  0.68226829  0.97818999    -0.20400
C610        C  0.13839206  0.63735774  0.97421628    -0.08400
C611        C  0.14008014  0.60220073  0.94385913     0.30400
C612        C  0.17267397  0.61210019  0.91706735    -0.20400
C613        C  0.20363561  0.65729368  0.91974331    -0.08500
C614        C  0.20291744  0.69236157  0.95138473     0.30400
F615        F  0.23257920  0.73651488  0.95584037    -0.19000
H616        H  0.16878345  0.70965845  0.00119515     0.18800
H617        H  0.17219814  0.58437960  0.89315615     0.18800
F618        F  0.10821099  0.55856387  0.93851162    -0.19000
C619        C  0.46239791  0.47410929  0.66340610    -0.20400
C620        C  0.49701918  0.51344423  0.68523945    -0.08400
C621        C  0.50638993  0.55543354  0.01862557     0.30400
C622        C  0.48312943  0.55995228  0.99636541    -0.20400
C623        C  0.44890530  0.52149107  0.97347426    -0.08500
C624        C  0.43773424  0.47707616  0.64121679     0.30400
F625        F  0.40504642  0.43847946  0.61955127    -0.19000
H626        H  0.45369514  0.44121081  0.66421378     0.18800
H627        H  0.49297783  0.59336228  0.99586369     0.18800
F628        F  0.53994164  0.59321219  0.04005882    -0.19000
C629        C  0.62736988  0.47484886  0.78078811    -0.20400
C630        C  0.60474725  0.42732795  0.77032294    -0.08400
C631        C  0.57219686  0.40245800  0.74232565     0.30400
C632        C  0.55979534  0.42496865  0.72807366    -0.20400
C633        C  0.57953362  0.47233557  0.74152286    -0.08500
C634        C  0.61472325  0.49722527  0.76672502     0.30400
F635        F  0.63506123  0.54319972  0.77957637    -0.19000
H636        H  0.65296231  0.49487697  0.80181938     0.18800
H637        H  0.53242081  0.40520385  0.70886609     0.18800
F638        F  0.55078902  0.35644970  0.73012432    -0.19000
C639        C  0.60812263  0.46679099  0.95387310    -0.20400
C640        C  0.57989438  0.42312219  0.93049430    -0.08400
C641        C  0.53664434  0.40026575  0.94236603     0.30400
C642        C  0.52264084  0.42060354  0.97681475    -0.20400
C643        C  0.55111885  0.46407405  0.99983549    -0.08500
C644        C  0.59394816  0.48696520  0.98806296     0.30400
F645        F  0.62555701  0.52960980  0.67519869    -0.19000
H646        H  0.64145823  0.48551976  0.94578268     0.18800
H647        H  0.48990530  0.40190135  0.98604812     0.18800
F648        F  0.50809190  0.35790128  0.92128686    -0.19000
C649        C  0.46759457  0.05687711  0.00201467    -0.20400
C650        C  0.48332459  0.04388013  0.96599735    -0.08400
C651        C  0.49429918  0.00953869  0.95615736     0.30400
C652        C  0.48756180  0.99074269  0.65227308    -0.20400
C653        C  0.46909812  0.00189643  0.68733794    -0.08500
C654        C  0.46267182  0.03576932  0.02795045     0.30400
F655        F  0.44613886  0.04809304  0.06228107    -0.19000
H656        H  0.45797356  0.08248440  0.00972053     0.18800
H657        H  0.49813434  0.96595224  0.64522842     0.18800
F658        F  0.51122138  0.00075276  0.59250495    -0.19000
C659        C  0.56125729  0.18080888  0.90303720    -0.20400
C660        C  0.51608559  0.15301486  0.90068945    -0.08400
C661        C  0.49106442  0.16167571  0.88388393     0.30400
C662        C  0.51128105  0.19692179  0.86843768    -0.20400
C663        C  0.55670977  0.22311219  0.86878084    -0.08500
C664        C  0.58159004  0.21549079  0.88699017     0.30400
F665        F  0.62556093  0.24090129  0.88857738    -0.19000
H666        H  0.58098746  0.17406664  0.91544497     0.18800
H667        H  0.49156685  0.20230852  0.85460333     0.18800
F668        F  0.44723660  0.13512616  0.88141504    -0.19000
C669        C  0.53009226  0.21325398  0.69589332    -0.20400
C670        C  0.56753033  0.21977344  0.70970443    -0.08400
C671        C  0.58334734  0.18956610  0.68981941     0.30400
C672        C  0.56141188  0.15330764  0.65774095    -0.20400
C673        C  0.52393554  0.14688711  0.64449194    -0.08500
C674        C  0.50866918  0.17739433  0.66356718     0.30400
F675        F  0.47212383  0.17148958  0.65154400    -0.19000
H676        H  0.51695457  0.23566111  0.71040912     0.18800
H677        H  0.57599780  0.13110103  0.97485652     0.18800
F678        F  0.61920473  0.19410020  0.70184270    -0.19000
C679        C  0.93539194  0.51638334  0.71408781    -0.20400
C680        C  0.93847035  0.47720637  0.69419758    -0.08400
C681        C  0.97930981  0.48007063  0.69232772     0.30400
C682        C  0.01698353  0.52250781  0.70125884    -0.20400
C683        C  0.01398089  0.56218937  0.71308742    -0.08500
C684        C  0.97304382  0.55873725  0.72416052     0.30400
F685        F  0.96905786  0.59651989  0.73923971    -0.19000
H686        H  0.90445240  0.51536434  0.71721819     0.18800
H687        H  0.04800110  0.52384347  0.69381891     0.18800
F688        F  0.98322983  0.44229888  0.67648212    -0.19000
C689        C  0.80331633  0.43385341  0.95117044    -0.20400
C690        C  0.80800945  0.39750823  0.95010198    -0.08400
C691        C  0.77863564  0.35343697  0.92899528     0.30400
C692        C  0.74662108  0.34612325  0.90732464    -0.20400
C693        C  0.74383243  0.38278988  0.90579281    -0.08500
C694        C  0.77151152  0.42674083  0.92922312     0.30400
F695        F  0.77013229  0.46323349  0.92894629    -0.19000
H696        H  0.82634784  0.46818830  0.96688588     0.18800
H697        H  0.72540415  0.31179349  0.89021497     0.18800
F698        F  0.78248865  0.31777840  0.92775877    -0.19000
C699        C  0.78947617  0.37524924  0.73624585    -0.20400
C700        C  0.76757674  0.40017300  0.75134492    -0.08400
C701        C  0.78064377  0.43851243  0.74067534     0.30400
C702        C  0.81335308  0.44987786  0.71393649    -0.20400
C703        C  0.83434226  0.42419189  0.69847603    -0.08500
C704        C  0.82265414  0.38726595  0.71028933     0.30400
F705        F  0.84183191  0.36129016  0.69497089    -0.19000
H706        H  0.78051068  0.34594275  0.74417022     0.18800
H707        H  0.82161508  0.47796324  0.70454600     0.18800
F708        F  0.76055160  0.46371973  0.75467128    -0.19000
loop_ 
_geom_bond_atom_site_label_1 
_geom_bond_atom_site_label_2 
_geom_bond_distance 
_geom_bond_site_symmetry_2 
_ccdc_geom_bond_type 
N1            C2   1.358       .  A
N1          C477   1.353   1_554  A
N1          C231   1.435       .  S
C2          C208   1.486       .  S
C2          C475   1.389   1_554  A
C3            C4   1.371       .  A
C3          C238   1.389       .  A
C3            H6   1.082       .  S
C4            C5   1.376       .  A
C4            H7   1.082       .  S
C5          N237   1.354       .  A
C5          C218   1.473       .  S
N8           C12   1.353       .  A
N8            C9   1.355       .  A
N8          C437   1.445       .  S
C9          C178   1.469       .  S
C9           C10   1.383       .  A
C10          C11   1.374       .  A
C10          H13   1.082       .  S
C11          C12   1.382       .  A
C11          H14   1.082       .  S
C12         C188   1.466       .  S
N15          C19   1.355       .  A
N15          C16   1.358       .  A
N15         C643   1.443   1_554  S
C16         C148   1.471       .  S
C16          C17   1.382       .  A
C17          C18   1.371       .  A
C17          H20   1.082       .  S
C18          C19   1.382       .  A
C18          H21   1.082       .  S
C19         C161   1.473       .  S
Fe22         O38   2.067       .  S
Fe22         O28   2.066       .  S
Fe22         O35   2.056       .  S
Fe22         O27   2.051       .  S
Fe22         O33   1.973       .  S
Fe23         O26   2.054       .  S
Fe23         O30   2.076       .  S
Fe23         O34   2.057       .  S
Fe23         O39   2.079       .  S
Fe23         O33   1.979       .  S
Fe24         O42   2.071       .  S
Fe24         O29   2.065       .  S
Fe24         O36   2.065       .  S
Fe24         O25   2.079       .  S
Fe24         O33   1.979       .  S
O25          C32   1.271       .  A
O26          C40   1.270       .  A
O27          C32   1.267       .  A
O28          C31   1.270       .  A
O29          C41   1.268       .  A
O30          C43   1.269       .  A
C31         C228   1.482       .  S
C31          O36   1.268       .  A
C32         C221   1.488       .  S
O34          C37   1.269       .  A
O35          C37   1.269       .  A
C37         C191   1.470       .  S
O38          C43   1.267       .  A
O39          C41   1.269       .  A
C40         C158   1.478       .  S
C40          O42   1.273       .  A
C41         C168   1.495       .  S
C43         C198   1.494       .  S
N44          C45   1.361       .  A
N44         C520   1.354   1_554  A
N44         C128   1.440       .  S
C45         C211   1.487       .  S
C45         C518   1.390       .  A
C46          C47   1.368       .  A
C46         C281   1.390       .  A
C46          H49   1.082       .  S
C47          C48   1.375       .  A
C47          H50   1.082       .  S
C48         N280   1.356       .  A
C48         C138   1.470       .  S
N51          C55   1.355       .  A
N51          C52   1.357       .  A
N51         C583   1.446       .  S
C52         C181   1.473   1_565  S
C52          C53   1.382   1_565  A
C53          C54   1.373   1_545  A
C53          H56   1.082       .  S
C54          C55   1.383       .  A
C54          H57   1.082       .  S
C55         C118   1.472       .  S
N58          C62   1.354       .  A
N58          C59   1.357       .  A
N58         C334   1.441       .  S
C59         C151   1.473       .  S
C59          C60   1.382       .  A
C60          C61   1.372       .  A
C60          H63   1.082       .  S
C61          C62   1.381       .  A
C61          H64   1.082       .  S
C62          C91   1.470       .  S
Fe65         O81   2.062       .  S
Fe65         O71   2.086       .  S
Fe65         O78   2.089       .  S
Fe65         O70   2.077       .  S
Fe65         O76   1.978       .  S
Fe66         O69   2.067       .  S
Fe66         O73   2.058       .  S
Fe66         O77   2.070       .  S
Fe66         O82   2.063       .  S
Fe66         O76   1.971       .  S
Fe67         O85   2.069       .  S
Fe67         O72   2.065       .  S
Fe67         O79   2.053       .  S
Fe67         O68   2.064       .  S
Fe67         O76   1.973       .  S
O68          C75   1.267       .  A
O69          C83   1.268       .  A
O70          C75   1.269       .  A
O71          C74   1.276       .  A
O72          C84   1.271       .  A
O73          C86   1.266       .  A
C74         C141   1.486       .  S
C74          O79   1.270       .  A
C75         C131   1.490       .  S
O77          C80   1.272       .  A
O78          C80   1.275       .  A
C80         C101   1.497       .  S
O81          C86   1.268       .  A
O82          C84   1.271       .  A
C83         C108   1.491       .  S
C83          O85   1.267       .  A
C84         C121   1.477       .  S
C86          C88   1.482       .  S
C87          C88   1.406       .  A
C87          C92   1.395       .  A
C87          H94   1.083       .  S
C88          C89   1.412       .  A
C89          C90   1.398       .  A
C89          F96   1.358       .  S
C90          C91   1.400       .  A
C90          H95   1.082       .  S
C91          C92   1.401       .  A
C92          F93   1.357       .  S
C97          C98   1.402   1_554  A
C97         C102   1.403       .  A
C97         H104   1.083   1_554  S
C98         N530   1.441       .  S
C98          C99   1.401   1_556  A
C99         C100   1.402       .  A
C99         F106   1.356   1_554  S
C100        C101   1.412       .  A
C100        H105   1.083       .  S
C101        C102   1.413       .  A
C102        F103   1.357       .  S
C107        C108   1.408       .  A
C107        C112   1.400       .  A
C107        H114   1.083       .  S
C108        C109   1.413       .  A
C109        C110   1.401       .  A
C109        F116   1.357       .  S
C110        C111   1.403       .  A
C110        H115   1.083       .  S
C111        N287   1.445       .  S
C111        C112   1.405       .  A
C112        F113   1.356       .  S
C117        C118   1.403       .  A
C117        C122   1.399       .  A
C117        H124   1.083       .  S
C118        C119   1.401       .  A
C119        C120   1.392       .  A
C119        F126   1.358       .  S
C120        C121   1.406       .  A
C120        H125   1.083       .  S
C121        C122   1.408       .  A
C122        F123   1.357       .  S
C127        C128   1.400       .  A
C127        C132   1.396       .  A
C127        H134   1.083       .  S
C128        C129   1.405       .  A
C129        C130   1.405       .  A
C129        F136   1.355       .  S
C130        C131   1.409       .  A
C130        H135   1.083       .  S
C131        C132   1.412       .  A
C132        F133   1.358       .  S
C137        C138   1.398       .  A
C137        C142   1.397       .  A
C137        H144   1.084       .  S
C138        C139   1.404       .  A
C139        C140   1.399       .  A
C139        F146   1.358       .  S
C140        C141   1.406       .  A
C140        H145   1.083       .  S
C141        C142   1.413       .  A
C142        F143   1.357       .  S
C147        C148   1.401   1_556  A
C147        C152   1.398       .  A
C147        H154   1.081       .  S
C148        C621   1.406       .  A
C149        C150   1.397       .  A
C149        C384   1.407       .  A
C149        F156   1.358       .  S
C150        C151   1.400       .  A
C150        H155   1.082       .  S
C151        C388   1.406       .  A
C152        C623   1.406       .  A
C152        F153   1.357       .  S
C157        C158   1.404       .  A
C157        C162   1.395       .  A
C157        H164   1.083       .  S
C158        C159   1.410       .  A
C159        C160   1.397       .  A
C159        F166   1.358       .  S
C160        C161   1.401       .  A
C160        H165   1.082       .  S
C161        C162   1.404       .  A
C162        F163   1.358       .  S
C167        C168   1.409       .  A
C167        C172   1.399       .  A
C167        H174   1.083       .  S
C168        C169   1.414       .  A
C169        C170   1.404       .  A
C169        F176   1.357       .  S
C170        C171   1.402       .  A
C170        H175   1.081       .  S
C171        N251   1.442       .  S
C171        C172   1.403       .  A
C172        F409   1.357       .  S
F173        C644   1.357   1_554  S
C177        C178   1.400       .  A
C177        C182   1.394       .  A
C177        H184   1.083       .  S
C178        C179   1.405       .  A
C179        C416   1.394   1_545  A
C179        F422   1.358   1_545  S
C180        C181   1.401   1_566  A
C180        C651   1.395   1_565  A
C180        H185   1.083       .  S
C181        C654   1.406       .  A
C182        C417   1.405   1_545  A
C182        F183   1.358       .  S
F186        C651   1.357   1_565  S
C187        C188   1.399       .  A
C187        C192   1.393       .  A
C187        H194   1.083       .  S
C188        C189   1.402       .  A
C189        C190   1.395       .  A
C189        F196   1.357       .  S
C190        C191   1.404       .  A
C190        H195   1.083       .  S
C191        C192   1.408       .  A
C192        F193   1.358       .  S
C197        C198   1.409       .  A
C197        C202   1.401   1_554  A
C197        H204   1.083       .  S
C198        C199   1.414       .  A
C199        C200   1.402   1_554  A
C199        F206   1.357       .  S
C200        C201   1.401       .  A
C200        H677   1.083       .  S
C201        N480   1.443       .  S
C201        C202   1.403       .  A
C202        F203   1.357       .  S
H205        C436   1.083       .  S
C207        C208   1.404       .  A
C207        C212   1.399       .  A
C207        H214   1.081       .  S
C208        C209   1.409       .  A
C209        C210   1.400   1_655  A
C209        F216   1.357       .  S
C210        C211   1.404       .  A
C210        H215   1.082       .  S
C211        C212   1.410   1_455  A
C212        F213   1.358       .  S
C217        C218   1.402       .  A
C217        C222   1.401       .  A
C217        H224   1.083       .  S
C218        C219   1.399       .  A
C219        C220   1.396       .  A
C219        F226   1.358       .  S
C220        C221   1.410       .  A
C220        H225   1.083       .  S
C221        C222   1.410       .  A
C222        F223   1.357       .  S
C227        C228   1.405       .  A
C227        C232   1.395       .  A
C227        H234   1.083       .  S
C228        C229   1.412       .  A
C229        C230   1.402       .  A
C229        F236   1.357       .  S
C230        C231   1.401       .  A
C230        H235   1.082       .  S
C231        C232   1.403       .  A
C232        F233   1.357       .  S
N237        C238   1.360       .  A
N237        C467   1.438       .  S
C238        C444   1.489       .  S
C239        C474   1.389       .  A
C239        C240   1.371       .  A
C239        H242   1.082       .  S
C240        C241   1.377       .  A
C240        H243   1.082       .  S
C241        N473   1.353       .  A
C241        C454   1.473       .  S
N244        C248   1.352       .  A
N244        C245   1.354       .  A
N244        C673   1.441       .  S
C245        C414   1.471       .  S
C245        C246   1.383       .  A
C246        C247   1.375       .  A
C246        H249   1.082       .  S
C247        C248   1.382       .  A
C247        H250   1.082       .  S
C248        C424   1.469       .  S
N251        C255   1.354       .  A
N251        C252   1.359       .  A
C252        C384   1.473       .  S
C252        C253   1.383       .  A
C253        C254   1.372       .  A
C253        H256   1.082       .  S
C254        C255   1.381       .  A
C254        H257   1.082       .  S
C255        C397   1.471       .  S
Fe258       O274   2.073       .  S
Fe258       O264   2.071       .  S
Fe258       O271   2.060       .  S
Fe258       O263   2.054       .  S
Fe258       O269   1.975       .  S
Fe259       O262   2.056       .  S
Fe259       O266   2.075       .  S
Fe259       O270   2.057       .  S
Fe259       O275   2.083       .  S
Fe259       O269   1.979       .  S
Fe260       O278   2.070       .  S
Fe260       O265   2.065       .  S
Fe260       O272   2.068       .  S
Fe260       O261   2.078       .  S
Fe260       O269   1.981       .  S
O261        C268   1.271       .  A
O262        C276   1.270       .  A
O263        C268   1.268       .  A
O264        C267   1.271       .  A
O265        C277   1.268       .  A
O266        C279   1.270       .  A
C267        C464   1.487       .  S
C267        O272   1.268       .  A
C268        C457   1.488       .  S
O270        C273   1.269       .  A
O271        C273   1.270       .  A
C273        C427   1.473       .  S
O274        C279   1.269       .  A
O275        C277   1.270       .  A
C276        C394   1.480       .  S
C276        O278   1.273       .  A
C277        C404   1.498       .  S
C279        C434   1.494       .  S
N280        C281   1.363       .  A
N280        C364   1.442       .  S
C281        C447   1.489       .  S
C282        C517   1.390       .  A
C282        C283   1.369       .  A
C282        H285   1.082       .  S
C283        C284   1.375       .  A
C283        H286   1.082       .  S
C284        N516   1.355       .  A
C284        C374   1.470       .  S
N287        C291   1.354       .  A
N287        C288   1.356       .  A
C288        C417   1.471       .  S
C288        C289   1.382   1_565  A
C289        C290   1.373   1_545  A
C289        H292   1.082       .  S
C290        C291   1.383       .  A
C290        H293   1.082       .  S
C291        C354   1.471       .  S
N294        C298   1.352       .  A
N294        C295   1.356       .  A
N294        C570   1.441       .  S
C295        C387   1.470       .  S
C295        C296   1.383       .  A
C296        C297   1.374       .  A
C296        H299   1.082       .  S
C297        C298   1.380       .  A
C297        H300   1.082       .  S
C298        C327   1.464       .  S
Fe301       O317   2.068       .  S
Fe301       O307   2.087       .  S
Fe301       O314   2.091       .  S
Fe301       O306   2.080       .  S
Fe301       O312   1.978       .  S
Fe302       O305   2.075       .  S
Fe302       O309   2.049       .  S
Fe302       O313   2.070       .  S
Fe302       O318   2.060       .  S
Fe302       O312   1.971       .  S
Fe303       O321   2.069       .  S
Fe303       O308   2.062       .  S
Fe303       O315   2.051       .  S
Fe303       O304   2.063       .  S
Fe303       O312   1.969       .  S
O304        C311   1.267       .  A
O305        C319   1.269       .  A
O306        C311   1.269       .  A
O307        C310   1.276       .  A
O308        C320   1.270       .  A
O309        C322   1.265       .  A
C310        C377   1.486       .  S
C310        O315   1.269       .  A
C311        C367   1.490       .  S
O313        C316   1.272       .  A
O314        C316   1.276       .  A
C316        C337   1.498       .  S
O317        C322   1.269       .  A
O318        C320   1.270       .  A
C319        C344   1.494       .  S
C319        O321   1.267       .  A
C320        C357   1.476       .  S
C322        C324   1.483       .  S
C323        C324   1.409       .  A
C323        C328   1.399       .  A
C323        H330   1.083       .  S
C324        C325   1.413       .  A
C325        C326   1.393       .  A
C325        F332   1.358       .  S
C326        C327   1.397       .  A
C326        H331   1.084       .  S
C327        C328   1.400       .  A
C328        F329   1.357       .  S
C333        C334   1.402       .  A
C333        C338   1.403       .  A
C333        H340   1.083       .  S
C334        C335   1.401       .  A
C335        C336   1.402       .  A
C335        F342   1.356       .  S
C336        C337   1.412       .  A
C336        H341   1.083       .  S
C337        C338   1.413       .  A
C338        F339   1.357       .  S
C343        C344   1.409       .  A
C343        C348   1.402       .  A
C343        H350   1.083       .  S
C344        C345   1.414       .  A
C345        C346   1.400       .  A
C345        F352   1.357       .  S
C346        C347   1.401       .  A
C346        H351   1.083       .  S
C347        N523   1.444       .  S
C347        C348   1.405       .  A
C348        F349   1.357       .  S
C353        C354   1.402       .  A
C353        C358   1.398       .  A
C353        H360   1.083       .  S
C354        C355   1.402       .  A
C355        C356   1.393       .  A
C355        F362   1.358       .  S
C356        C357   1.406       .  A
C356        H361   1.083       .  S
C357        C358   1.408       .  A
C358        F359   1.357       .  S
C363        C364   1.401       .  A
C363        C368   1.396       .  A
C363        H370   1.083       .  S
C364        C365   1.406       .  A
C365        C366   1.406       .  A
C365        F372   1.355       .  S
C366        C367   1.408       .  A
C366        H371   1.083       .  S
C367        C368   1.411       .  A
C368        F369   1.358       .  S
C373        C374   1.398       .  A
C373        C378   1.397       .  A
C373        H380   1.084       .  S
C374        C375   1.404       .  A
C375        C376   1.399       .  A
C375        F382   1.358       .  S
C376        C377   1.406       .  A
C376        H381   1.083       .  S
C377        C378   1.413       .  A
C378        F379   1.357       .  S
C383        C384   1.401       .  A
C383        C388   1.397       .  A
C383        H390   1.080       .  S
C385        C620   1.407       .  A
C385        C386   1.396       .  A
C385        F392   1.358       .  S
C386        C387   1.400       .  A
C386        H391   1.083       .  S
C387        C624   1.404       .  A
C388        F389   1.358       .  S
C393        C394   1.405       .  A
C393        C398   1.394       .  A
C393        H400   1.083       .  S
C394        C395   1.411       .  A
C395        C396   1.397       .  A
C395        F402   1.358       .  S
C396        C397   1.400       .  A
C396        H401   1.083       .  S
C397        C398   1.402       .  A
C398        F399   1.357       .  S
C403        C404   1.409       .  A
C403        C408   1.400       .  A
C403        H410   1.083       .  S
C404        C405   1.414       .  A
C405        C406   1.406       .  A
C405        F412   1.357       .  S
C406        C407   1.403       .  A
C406        H411   1.081       .  S
C407        N487   1.445       .  S
C407        C408   1.403       .  A
C408        F645   1.357       .  S
C413        C414   1.401       .  A
C413        C418   1.396       .  A
C413        H420   1.083       .  S
C414        C415   1.405       .  A
C415        C652   1.396   1_545  A
C415        F658   1.357       .  S
C416        C417   1.401       .  A
C416        H421   1.083       .  S
C418        C653   1.407       .  A
C418        F419   1.358       .  S
C423        C424   1.400       .  A
C423        C428   1.395       .  A
C423        H430   1.083       .  S
C424        C425   1.402       .  A
C425        C426   1.396       .  A
C425        F432   1.357       .  S
C426        C427   1.405       .  A
C426        H431   1.083       .  S
C427        C428   1.408       .  A
C428        F429   1.358       .  S
C433        C434   1.408       .  A
C433        C438   1.400       .  A
C433        H440   1.083       .  S
C434        C435   1.413       .  A
C435        C436   1.404       .  A
C435        F442   1.357       .  S
C436        C437   1.403       .  A
C437        C438   1.404       .  A
C438        F439   1.357       .  S
H441        C672   1.083       .  S
C443        C444   1.404       .  A
C443        C448   1.400       .  A
C443        H450   1.081       .  S
C444        C445   1.410       .  A
C445        C446   1.400   1_655  A
C445        F452   1.357       .  S
C446        C447   1.404       .  A
C446        H451   1.082       .  S
C447        C448   1.411   1_455  A
C448        F449   1.358       .  S
C453        C454   1.403       .  A
C453        C458   1.401       .  A
C453        H460   1.083       .  S
C454        C455   1.399       .  A
C455        C456   1.396       .  A
C455        F462   1.357       .  S
C456        C457   1.410       .  A
C456        H461   1.083       .  S
C457        C458   1.411       .  A
C458        F459   1.357       .  S
C463        C464   1.406       .  A
C463        C468   1.396       .  A
C463        H470   1.083       .  S
C464        C465   1.413       .  A
C465        C466   1.403       .  A
C465        F472   1.357       .  S
C466        C467   1.402       .  A
C466        H471   1.082       .  S
C467        C468   1.403       .  A
C468        F469   1.357       .  S
N473        C474   1.359       .  A
N473        C703   1.436       .  S
C474        C680   1.488       .  S
C475        C476   1.372       .  A
C475        H478   1.082       .  S
C476        C477   1.377       .  A
C476        H479   1.082       .  S
C477        C690   1.472       .  S
N480        C484   1.353       .  A
N480        C481   1.355       .  A
C481        C650   1.471       .  S
C481        C482   1.383       .  A
C482        C483   1.374       .  A
C482        H485   1.082       .  S
C483        C484   1.382       .  A
C483        H486   1.082       .  S
C484        C660   1.468       .  S
N487        C491   1.356       .  A
N487        C488   1.360       .  A
C488        C620   1.473       .  S
C488        C489   1.382       .  A
C489        C490   1.370       .  A
C489        H492   1.082       .  S
C490        C491   1.382       .  A
C490        H493   1.082       .  S
C491        C633   1.473       .  S
Fe494       O510   2.070       .  S
Fe494       O500   2.065       .  S
Fe494       O507   2.057       .  S
Fe494       O499   2.053       .  S
Fe494       O505   1.975       .  S
Fe495       O498   2.056       .  S
Fe495       O502   2.069       .  S
Fe495       O506   2.057       .  S
Fe495       O511   2.078       .  S
Fe495       O505   1.979       .  S
Fe496       O514   2.068       .  S
Fe496       O501   2.067       .  S
Fe496       O508   2.068       .  S
Fe496       O497   2.077       .  S
Fe496       O505   1.980       .  S
O497        C504   1.271       .  A
O498        C512   1.270       .  A
O499        C504   1.267       .  A
O500        C503   1.270       .  A
O501        C513   1.268       .  A
O502        C515   1.268       .  A
C503        C700   1.484       .  S
C503        O508   1.268       .  A
C504        C693   1.487       .  S
O506        C509   1.269       .  A
O507        C509   1.269       .  A
C509        C663   1.469       .  S
O510        C515   1.268       .  A
O511        C513   1.268       .  A
C512        C630   1.478       .  S
C512        O514   1.272       .  A
C513        C640   1.496       .  S
C515        C670   1.492       .  S
N516        C517   1.362       .  A
N516        C600   1.441       .  S
C517        C683   1.489       .  S
C518        C519   1.369   1_554  A
C518        H521   1.082   1_455  S
C519        C520   1.375       .  A
C519        H522   1.082       .  S
C520        C610   1.467       .  S
N523        C527   1.355       .  A
N523        C524   1.357       .  A
C524        C653   1.474   1_565  S
C524        C525   1.382   1_565  A
C525        C526   1.373   1_545  A
C525        H528   1.082       .  S
C526        C527   1.383       .  A
C526        H529   1.083       .  S
C527        C590   1.473       .  S
N530        C534   1.351       .  A
N530        C531   1.356       .  A
C531        C623   1.471       .  S
C531        C532   1.383       .  A
C532        C533   1.373       .  A
C532        H535   1.082       .  S
C533        C534   1.380       .  A
C533        H536   1.082       .  S
C534        C563   1.466       .  S
Fe537       O553   2.062       .  S
Fe537       O543   2.080       .  S
Fe537       O550   2.084       .  S
Fe537       O542   2.077       .  S
Fe537       O548   1.974       .  S
Fe538       O541   2.075       .  S
Fe538       O545   2.058       .  S
Fe538       O549   2.073       .  S
Fe538       O554   2.065       .  S
Fe538       O548   1.969       .  S
Fe539       O557   2.072       .  S
Fe539       O544   2.063       .  S
Fe539       O551   2.054       .  S
Fe539       O540   2.065       .  S
Fe539       O548   1.967       .  S
O540        C547   1.268       .  A
O541        C555   1.269       .  A
O542        C547   1.269       .  A
O543        C546   1.275       .  A
O544        C556   1.271       .  A
O545        C558   1.267       .  A
C546        C613   1.484       .  S
C546        O551   1.269       .  A
C547        C603   1.490       .  S
O549        C552   1.272       .  A
O550        C552   1.274       .  A
C552        C573   1.494       .  S
O553        C558   1.268       .  A
O554        C556   1.271       .  A
C555        C580   1.495       .  S
C555        O557   1.268       .  A
C556        C593   1.476       .  S
C558        C560   1.482       .  S
C559        C560   1.407       .  A
C559        C564   1.395       .  A
C559        H566   1.083       .  S
C560        C561   1.412       .  A
C561        C562   1.397       .  A
C561        F568   1.358       .  S
C562        C563   1.399       .  A
C562        H567   1.083       .  S
C563        C564   1.399       .  A
C564        F565   1.357       .  S
C569        C570   1.402       .  A
C569        C574   1.403       .  A
C569        H576   1.083       .  S
C570        C571   1.403       .  A
C571        C572   1.402       .  A
C571        F578   1.356       .  S
C572        C573   1.410       .  A
C572        H577   1.083       .  S
C573        C574   1.412       .  A
C574        F575   1.357       .  S
C579        C580   1.409       .  A
C579        C584   1.402       .  A
C579        H586   1.083       .  S
C580        C581   1.414       .  A
C581        C582   1.401       .  A
C581        F588   1.357       .  S
C582        C583   1.401   1_556  A
C582        H587   1.083   1_556  S
C583        C584   1.406   1_554  A
C584        F585   1.357   1_556  S
C589        C590   1.404       .  A
C589        C594   1.399       .  A
C589        H596   1.083       .  S
C590        C591   1.402       .  A
C591        C592   1.392       .  A
C591        F598   1.358       .  S
C592        C593   1.405       .  A
C592        H597   1.083       .  S
C593        C594   1.408       .  A
C594        F595   1.357       .  S
C599        C600   1.400       .  A
C599        C604   1.395       .  A
C599        H606   1.083       .  S
C600        C601   1.405       .  A
C601        C602   1.406       .  A
C601        F608   1.355       .  S
C602        C603   1.409       .  A
C602        H607   1.083       .  S
C603        C604   1.412       .  A
C604        F605   1.358       .  S
C609        C610   1.398       .  A
C609        C614   1.397       .  A
C609        H616   1.084   1_556  S
C610        C611   1.402       .  A
C611        C612   1.396       .  A
C611        F618   1.358       .  S
C612        C613   1.407       .  A
C612        H617   1.083       .  S
C613        C614   1.413       .  A
C614        F615   1.357       .  S
C619        C620   1.401       .  A
C619        C624   1.397       .  A
C619        H626   1.080       .  S
C621        C622   1.396   1_554  A
C621        F628   1.358       .  S
C622        C623   1.400       .  A
C622        H627   1.082       .  S
C624        F625   1.357       .  S
C629        C630   1.404       .  A
C629        C634   1.394       .  A
C629        H636   1.083       .  S
C630        C631   1.410       .  A
C631        C632   1.397       .  A
C631        F638   1.358       .  S
C632        C633   1.401       .  A
C632        H637   1.082       .  S
C633        C634   1.404       .  A
C634        F635   1.358       .  S
C639        C640   1.409       .  A
C639        C644   1.399       .  A
C639        H646   1.083       .  S
C640        C641   1.414       .  A
C641        C642   1.405       .  A
C641        F648   1.357       .  S
C642        C643   1.403       .  A
C642        H647   1.082       .  S
C643        C644   1.402       .  A
C649        C650   1.400   1_554  A
C649        C654   1.394       .  A
C649        H656   1.083       .  S
C650        C651   1.405       .  A
C652        C653   1.401   1_565  A
C652        H657   1.083       .  S
C654        F655   1.358       .  S
C659        C660   1.400       .  A
C659        C664   1.394       .  A
C659        H666   1.083       .  S
C660        C661   1.403       .  A
C661        C662   1.395       .  A
C661        F668   1.357       .  S
C662        C663   1.403       .  A
C662        H667   1.083       .  S
C663        C664   1.407       .  A
C664        F665   1.358       .  S
C669        C670   1.409       .  A
C669        C674   1.399       .  A
C669        H676   1.083       .  S
C670        C671   1.413       .  A
C671        C672   1.402       .  A
C671        F678   1.357       .  S
C672        C673   1.401       .  A
C673        C674   1.402       .  A
C674        F675   1.357       .  S
C679        C680   1.404       .  A
C679        C684   1.399       .  A
C679        H686   1.081       .  S
C680        C681   1.409       .  A
C681        C682   1.400   1_655  A
C681        F688   1.357       .  S
C682        C683   1.404       .  A
C682        H687   1.081       .  S
C683        C684   1.410   1_455  A
C684        F685   1.358       .  S
C689        C690   1.402       .  A
C689        C694   1.400       .  A
C689        H696   1.083       .  S
C690        C691   1.399       .  A
C691        C692   1.396       .  A
C691        F698   1.357       .  S
C692        C693   1.410       .  A
C692        H697   1.083       .  S
C693        C694   1.410       .  A
C694        F695   1.357       .  S
C699        C700   1.405       .  A
C699        C704   1.395       .  A
C699        H706   1.083       .  S
C700        C701   1.412       .  A
C701        C702   1.403       .  A
C701        F708   1.357       .  S
C702        C703   1.401       .  A
C702        H707   1.082       .  S
C703        C704   1.403       .  A
C704        F705   1.357       .  S
