geometry optimzed in LAMMPS
_audit_creation_date              2020-11-30 
_audit_creation_method            'lammps2cif' 
_symmetry_space_group_name_H-M    'P1' 
_symmetry_Int_Tables_number       1 
_symmetry_cell_setting            triclinic 
loop_ 
_symmetry_equiv_pos_as_xyz 
  x,y,z 
_cell_length_a                    29.83154025014242 
_cell_length_b                    29.839466727025744 
_cell_length_c                    54.43359814394054 
_cell_angle_alpha                 89.99237088255519 
_cell_angle_beta                  90.00066202210533 
_cell_angle_gamma                 89.78500325954724 
loop_ 
_atom_site_label 
_atom_site_type_symbol 
_atom_site_fract_x 
_atom_site_fract_y 
_atom_site_fract_z 
_atom_site_charge 
C1          C  0.24969201  0.50014247  0.25076137    -0.02140
C2          C  0.47669901  0.25047860  0.00068481     0.00920
C3          C  0.02235938  0.25051133  0.00070457     0.00910
C4          C  0.24925100  0.50021786  0.75075951    -0.02140
C5          C  0.99932257  0.25020947  0.75073487    -0.02140
C6          C  0.24891319  0.47732242  0.00072444     0.00920
C7          C  0.25062506  0.02279634  0.00077060     0.00910
C8          C  0.24399669  0.38072377  0.90889242     0.43170
N9          N  0.26522423  0.34378386  0.87710177     0.01700
C10         C  0.13109348  0.20612442  0.80590440    -0.06180
H11         H  0.13275401  0.17101308  0.90090954     0.07190
C12         C  0.29405509  0.13741822  0.89637507    -0.06530
Co13       Co  0.18759293  0.30450371  0.85011719     0.74180
N14         N  0.15866061  0.22231185  0.87694483    -0.25710
Co15       Co  0.19516063  0.18856117  0.85019478     0.74070
C16         C  0.25475858  0.12000110  0.90909311     0.42910
N17         N  0.34278273  0.23403751  0.87720644     0.01310
N18         N  0.23344216  0.15663566  0.87720777     0.01420
N19         N  0.12686172  0.28189837  0.80662688    -0.46550
H20         H  0.16953456  0.36644100  0.90080014     0.07180
N21         N  0.15588426  0.26643665  0.87716067     0.01710
N22         N  0.23315833  0.15610018  0.82345965     0.01450
C23         C  0.25394019  0.11184378  0.79474784     0.43050
N24         N  0.34002089  0.27816074  0.87693166    -0.25160
C25         C  0.20506715  0.36853384  0.80577511    -0.06080
N26         N  0.28036443  0.36727768  0.89600434    -0.46270
N27         N  0.21778710  0.12781332  0.80675229    -0.46490
C28         C  0.24467456  0.38838669  0.79460695     0.42820
N29         N  0.15523253  0.26654782  0.82337032     0.01690
N30         N  0.34064389  0.27793114  0.82346614    -0.25180
N31         N  0.22113425  0.34083743  0.87690942    -0.25680
N32         N  0.34342952  0.23374077  0.82339201     0.01330
H33         H  0.37390347  0.32916826  0.80225474     0.07220
H34         H  0.32862240  0.12513165  0.80227867     0.07260
N35         N  0.15799741  0.22235488  0.82349449    -0.25730
N36         N  0.27752221  0.15972046  0.87703518    -0.25340
N37         N  0.26548509  0.34418132  0.82334789     0.01700
C38         C  0.11888023  0.24558275  0.90889194     0.43090
C39         C  0.36277087  0.29449269  0.89614363    -0.06590
N40         N  0.27735220  0.15871121  0.82351532    -0.25340
H41         H  0.32917638  0.13437177  0.90096812     0.07240
N42         N  0.13260055  0.28183169  0.89611935    -0.46560
H43         H  0.36594647  0.32953683  0.90084627     0.07230
C44         C  0.38754174  0.25452203  0.79466238     0.42930
C45         C  0.20464418  0.36337057  0.89618397    -0.06090
Co46       Co  0.30349318  0.31179676  0.85012855     0.73820
N47         N  0.36603590  0.21870766  0.89619957    -0.46280
C48         C  0.11107065  0.24570496  0.79468100     0.43200
N49         N  0.28083891  0.37245248  0.80662267    -0.46270
Co50       Co  0.31106382  0.19588875  0.85019092     0.73890
C51         C  0.29356244  0.13170337  0.80590109    -0.06600
C52         C  0.13591279  0.20604376  0.89616995    -0.06160
N53         N  0.22129269  0.34156619  0.82340493    -0.25690
N54         N  0.21835406  0.13315631  0.89613686    -0.46450
H55         H  0.12466823  0.17107126  0.80235363     0.07200
C56         C  0.36750954  0.29412211  0.80584826    -0.06570
Cl57       Cl  0.24932753  0.25018716  0.85002784    -0.49570
C58         C  0.37976648  0.25499830  0.90893095     0.42960
H59         H  0.17000356  0.37510778  0.80216242     0.07170
N60         N  0.37179090  0.21835196  0.80665528    -0.46280
C61         C  0.24656336  0.38831651  0.20689965     0.42810
N62         N  0.26676326  0.34399999  0.17810335     0.01700
C63         C  0.13764458  0.20709614  0.10469754    -0.06180
H64         H  0.12433401  0.17213469  0.19905664     0.07190
C65         C  0.29279931  0.13134307  0.19575800    -0.06530
Co66       Co  0.18837086  0.30496328  0.15141408     0.74180
N67         N  0.15815932  0.22308944  0.17789016    -0.25710
Co68       Co  0.19533674  0.18901774  0.15117482     0.74070
C69         C  0.25287246  0.11185481  0.20680084     0.42910
N70         N  0.34371509  0.23295494  0.17820465     0.01310
N71         N  0.23280015  0.15624476  0.17800534     0.01420
N72         N  0.13257438  0.28276250  0.10556581    -0.46550
H73         H  0.17170906  0.37574737  0.19947002     0.07180
N74         N  0.15586983  0.26730730  0.17810136     0.01710
N75         N  0.23360877  0.15674606  0.12426665     0.01450
C76         C  0.25491149  0.11962384  0.09254584     0.43050
N77         N  0.34139335  0.27717242  0.17802789    -0.25160
C78         C  0.20563163  0.36327288  0.10525016    -0.06080
N79         N  0.28249178  0.37207488  0.19481528    -0.46270
N80         N  0.21850180  0.13328819  0.10533752    -0.46490
C81         C  0.24499159  0.38041112  0.09249395     0.42820
N82         N  0.15611267  0.26720013  0.12440675     0.01690
N83         N  0.34026382  0.27729002  0.12445101    -0.25180
N84         N  0.22254397  0.34177679  0.17810596    -0.25680
N85         N  0.34361419  0.23320366  0.12450740     0.01330
H86         H  0.36518228  0.32841768  0.10009705     0.07220
H87         H  0.32938722  0.13336460  0.10088757     0.07260
N88         N  0.15952177  0.22311951  0.12427684    -0.25730
N89         N  0.27702149  0.15847209  0.17807804    -0.25340
N90         N  0.26618163  0.34366036  0.12436355     0.01700
C91         C  0.11154127  0.24692114  0.20678424     0.43090
C92         C  0.36844712  0.29311819  0.19563778    -0.06590
N93         N  0.27771327  0.15937480  0.12457886    -0.25340
H94         H  0.32776109  0.12445360  0.19949230     0.07240
N95         N  0.12772749  0.28293850  0.19486927    -0.46560
H96         H  0.37520270  0.32810167  0.19920723     0.07230
C97         C  0.37984147  0.25388097  0.09245293     0.42930
C98         C  0.20668739  0.36886275  0.19578188    -0.06090
Co99       Co  0.30433548  0.31131736  0.15130745     0.73820
N100        N  0.37188520  0.21730833  0.19495831    -0.46280
C101        C  0.11995388  0.24669383  0.09229719     0.43200
N102        N  0.28135793  0.36705557  0.10542107    -0.46270
Co103      Co  0.31130377  0.19533626  0.15145615     0.73890
C104        C  0.29424320  0.13673919  0.10535937    -0.06600
C105        C  0.13108625  0.20712199  0.19549176    -0.06160
N106        N  0.22208297  0.34089098  0.12457749    -0.25690
N107        N  0.21699637  0.12812326  0.19467655    -0.46450
H108        H  0.13471142  0.17212886  0.09978726     0.07200
C109        C  0.36222308  0.29341723  0.10493186    -0.06570
Cl110      Cl  0.24983894  0.25015450  0.15154118    -0.49570
C111        C  0.38803140  0.25331460  0.20689864     0.42960
H112        H  0.17051509  0.36658304  0.10069693     0.07170
N113        N  0.36712997  0.21773270  0.10563925    -0.46280
C114        C  0.13753492  0.00444317  0.70677104     0.42810
N115        N  0.09341869  0.48370810  0.67803626     0.01700
C116        C  0.45495043  0.11276799  0.60493160    -0.06180
H117        H  0.42001953  0.12534646  0.69916961     0.07190
C118        C  0.38110844  0.45647812  0.69571911    -0.06530
Co119      Co  0.05351654  0.06183573  0.65134370     0.74180
N120        N  0.47133178  0.09172970  0.67798508    -0.25710
Co121      Co  0.43760600  0.05459976  0.65130181     0.74070
C122        C  0.36107191  0.99610139  0.70687271     0.42910
N123        N  0.48307377  0.40625648  0.67815461     0.01310
N124        N  0.40518881  0.01681776  0.67812908     0.01420
N125        N  0.03062997  0.11742406  0.60553593    -0.46550
H126        H  0.12390373  0.07910019  0.69920862     0.07180
N127        N  0.01552904  0.09426874  0.67809439     0.01710
N128        N  0.40582993  0.01647808  0.62433172     0.01450
C129        C  0.36889708  0.99559140  0.59258541     0.43050
N130        N  0.02727186  0.40878144  0.67799288    -0.25160
C131        C  0.11269370  0.04442532  0.60528040    -0.06080
N132        N  0.12178374  0.46828824  0.69476731    -0.46270
N133        N  0.38266726  0.03185029  0.60532096    -0.46490
C134        C  0.12957904  0.00489616  0.59247496     0.42820
N135        N  0.01534637  0.09391117  0.62439703     0.01690
N136        N  0.02714621  0.40983261  0.62441021    -0.25180
N137        N  0.09063118  0.02790042  0.67798566    -0.25680
N138        N  0.48307073  0.40654163  0.62446068     0.01330
H139        H  0.07841493  0.38474598  0.60006534     0.07220
H140        H  0.38254921  0.42102211  0.60069669     0.07260
N141        N  0.47126849  0.09067250  0.62441166    -0.25730
N142        N  0.40797425  0.47262572  0.67809272    -0.25340
N143        N  0.09262430  0.48401005  0.62422601     0.01700
C144        C  0.49468184  0.13854648  0.70678313     0.43090
C145        C  0.04356737  0.38176790  0.69558451    -0.06590
N146        N  0.40849104  0.47234901  0.62462992    -0.25340
H147        H  0.37468578  0.42144098  0.69932396     0.07240
N148        N  0.03086928  0.12254333  0.69481791    -0.46560
H149        H  0.07864383  0.37514790  0.69913378     0.07230
C150        C  0.50392724  0.37016954  0.59244974     0.42930
C151        C  0.11750405  0.04406034  0.69560437    -0.06090
Co152      Co  0.06091443  0.44590620  0.65125196     0.73820
N153        N  0.46778259  0.37799826  0.69490394    -0.46280
C154        C  0.49438388  0.13030733  0.59240318     0.43200
N155        N  0.11581447  0.46863891  0.60522353    -0.46270
Co156      Co  0.44500121  0.43866176  0.65143282     0.73890
C157        C  0.38576127  0.45606014  0.60540107    -0.06600
C158        C  0.45508615  0.11874078  0.69558445    -0.06160
N159        N  0.08995853  0.02813901  0.62451323    -0.25690
N160        N  0.37682350  0.03224717  0.69485423    -0.46450
H161        H  0.41990531  0.11582472  0.60015042     0.07200
C162        C  0.04339362  0.38777310  0.60490579    -0.06570
Cl163      Cl  0.49925673  0.00025073  0.65146540    -0.49570
C164        C  0.50400207  0.36198222  0.70683669     0.42960
H165        H  0.11593085  0.07946553  0.60058049     0.07170
N166        N  0.46772195  0.38299058  0.60563066    -0.46280
C167        C  0.49684545  0.36203395  0.29471075     0.42810
N168        N  0.01710728  0.40635406  0.32342341     0.01700
C169        C  0.38575155  0.04420866  0.39613530    -0.06180
H170        H  0.37384852  0.07806848  0.30209172     0.07190
C171        C  0.04243874  0.11887894  0.30595186    -0.06530
Co172      Co  0.43868142  0.44563605  0.35028379     0.74180
N173        N  0.40794607  0.02733351  0.32346494    -0.25710
Co174      Co  0.44465821  0.06158014  0.35013708     0.74070
C175        C  0.50261515  0.13845770  0.29471035     0.42910
N176        N  0.09352216  0.01734885  0.32349040     0.01310
N177        N  0.48227690  0.09412567  0.32340593     0.01420
N178        N  0.38306776  0.46844222  0.39623471    -0.46550
H179        H  0.42200904  0.37478246  0.30235816     0.07180
N180        N  0.40585408  0.48312175  0.32348046     0.01710
N181        N  0.48245249  0.09387504  0.37712861     0.01450
C182        C  0.50317699  0.13056511  0.40903839     0.43050
N183        N  0.09142157  0.47313701  0.32348378    -0.25160
C184        C  0.45659429  0.38761394  0.39655110    -0.06080
N185        N  0.03281856  0.37821719  0.30667551    -0.46270
N186        N  0.46699333  0.11743133  0.39598346    -0.46490
C187        C  0.49612236  0.37012117  0.40910753     0.42820
N188        N  0.40632775  0.48371725  0.37726655     0.01690
N189        N  0.09068246  0.47265672  0.37695346    -0.25180
N190        N  0.47287788  0.40863854  0.32356792    -0.25680
N191        N  0.09297875  0.01677830  0.37726371     0.01330
H192        H  0.11702777  0.42120428  0.40073311     0.07220
H193        H  0.07778429  0.11627172  0.40114340     0.07260
N194        N  0.40862698  0.02783772  0.37694820    -0.25730
N195        N  0.02650486  0.09181730  0.32355888    -0.25340
N196        N  0.01687927  0.40659830  0.37714084     0.01700
C197        C  0.36146741  0.00320159  0.29467700     0.43090
C198        C  0.11856798  0.45734069  0.30582085    -0.06590
N199        N  0.02656246  0.09079082  0.37708989    -0.25340
H200        H  0.07742745  0.12565898  0.30238245     0.07240
N201        N  0.37781066  0.46732204  0.30676827    -0.46560
H202        H  0.12553901  0.42238600  0.30213969     0.07230
C203        C  0.13027547  0.99574308  0.40895858     0.42930
C204        C  0.45698805  0.38157353  0.30594852    -0.06090
Co205      Co  0.05468852  0.43889808  0.35015079     0.73820
N206        N  0.12159460  0.03313528  0.30678579    -0.46280
C207        C  0.36898832  0.00475940  0.40895757     0.43200
N208        N  0.03232496  0.38307547  0.39601656    -0.46270
Co209      Co  0.06066754  0.05485273  0.35027724     0.73890
C210        C  0.04272896  0.11309386  0.39647070    -0.06600
C211        C  0.38081995  0.04311667  0.30578608    -0.06160
N212        N  0.47277235  0.40976195  0.37711898    -0.25690
N213        N  0.46660745  0.12229782  0.30665931    -0.46450
H214        H  0.38226206  0.07929285  0.40071846     0.07200
C215        C  0.11354023  0.45628837  0.39614532    -0.06570
Cl216      Cl  0.49966855  0.00024228  0.35008623    -0.49570
C217        C  0.13793667  0.99724531  0.29471066     0.42960
H218        H  0.42154955  0.38449123  0.40126563     0.07170
N219        N  0.11622019  0.03206113  0.39623063    -0.46280
C220        C  0.99963839  0.27304752  0.50079568     0.00920
C221        C  0.99888100  0.22747316  0.50076947     0.00910
C222        C  0.27231992  0.50039748  0.50079418     0.00920
C223        C  0.22673016  0.50016856  0.50080988     0.00910
C224        C  0.99985364  0.25024453  0.25079584    -0.02140
C225        C  0.49838912  0.32365797  0.27885854    -0.12920
C226        C  0.49963457  0.29049563  0.26621366    -0.14480
C227        C  0.50116263  0.17687199  0.27888783    -0.12920
C228        C  0.50003426  0.21004443  0.26624911    -0.14480
C229        C  0.46156545  0.17501993  0.44079740    -0.13000
C230        C  0.50165311  0.15514199  0.43259420     0.09150
C231        C  0.04033652  0.15862190  0.44721700    -0.13000
C232        C  0.03899258  0.18154021  0.46955747    -0.13000
C233        C  0.99918729  0.20183405  0.47750068     0.09150
C234        C  0.46042138  0.19848577  0.46305597    -0.13000
H235        H  0.43127395  0.17277060  0.42991112     0.13140
H236        H  0.07164471  0.14340588  0.44156342     0.13140
H237        H  0.06917163  0.18400178  0.48053746     0.13140
H238        H  0.42944713  0.21409506  0.46902146     0.13140
C239        C  0.45963204  0.34473419  0.44800292    -0.13000
C240        C  0.49757213  0.34570521  0.43269633     0.09150
C241        C  0.03679968  0.32337883  0.44020662    -0.13000
C242        C  0.03774331  0.29983011  0.46243926    -0.13000
C243        C  0.99965029  0.29879292  0.47753905     0.09150
C244        C  0.46080281  0.32170051  0.47031513    -0.13000
H245        H  0.42907795  0.36201521  0.44288914     0.13140
H246        H  0.06650404  0.32370956  0.42877306     0.13140
H247        H  0.06804157  0.28235210  0.46787477     0.13140
H248        H  0.43118147  0.32117468  0.48182356     0.13140
C249        C  0.17401786  0.45761970  0.44221021    -0.13000
C250        C  0.15509393  0.99699551  0.43243218     0.09150
C251        C  0.15954480  0.03738864  0.44546666    -0.13000
C252        C  0.18222073  0.03826216  0.46795688    -0.13000
C253        C  0.20120598  0.49892371  0.47751943     0.09150
C254        C  0.19707696  0.45864888  0.46453312    -0.13000
H255        H  0.17140648  0.42604954  0.43255596     0.13140
H256        H  0.14518300  0.06817572  0.43838604     0.13140
H257        H  0.18546072  0.06964813  0.47778084     0.13140
H258        H  0.21183083  0.42809758  0.47168852     0.13140
C259        C  0.33977505  0.46317381  0.44552389    -0.13000
C260        C  0.34409758  0.00351699  0.43242180     0.09150
C261        C  0.32498670  0.04285918  0.44212385    -0.13000
C262        C  0.30185571  0.04184631  0.46443129    -0.13000
C263        C  0.29785542  0.50162250  0.47748865     0.09150
C264        C  0.31703309  0.46231957  0.46800066    -0.13000
H265        H  0.35428986  0.43241213  0.43850830     0.13140
H266        H  0.32750275  0.07439174  0.43241938     0.13140
H267        H  0.28696959  0.07237799  0.47152464     0.13140
H268        H  0.31390931  0.43096984  0.47787531     0.13140
C269        C  0.17766350  0.04151997  0.56077482    -0.13000
C270        C  0.15440381  0.00354473  0.56903306     0.09150
C271        C  0.15455660  0.46457450  0.55454223    -0.13000
C272        C  0.17732850  0.46377696  0.53207077    -0.13000
C273        C  0.20095058  0.50159800  0.52406187     0.09150
C274        C  0.20099382  0.04044407  0.53853230    -0.13000
H275        H  0.17831812  0.07189522  0.57163222     0.13140
H276        H  0.13667131  0.43494936  0.56045520     0.13140
H277        H  0.17715632  0.43348952  0.52110789     0.13140
H278        H  0.21916895  0.06986303  0.53257390     0.13140
C279        C  0.34429527  0.03589811  0.55458625    -0.13000
C280        C  0.34426242  0.99694672  0.56909602     0.09150
C281        C  0.32103467  0.45898744  0.56081004    -0.13000
C282        C  0.29787592  0.46006756  0.53851970    -0.13000
C283        C  0.29807490  0.49890492  0.52403945     0.09150
C284        C  0.32168506  0.03670261  0.53207019    -0.13000
H285        H  0.36217888  0.06550552  0.56052406     0.13140
H286        H  0.32025459  0.42863035  0.57168455     0.13140
H287        H  0.27968538  0.43067394  0.53254149     0.13140
H288        H  0.32195275  0.06698313  0.52109762     0.13140
C289        C  0.03502863  0.17724339  0.56159120    -0.13000
C290        C  0.49591595  0.15471760  0.56882421     0.09150
C291        C  0.45834829  0.15542377  0.55324009    -0.13000
C292        C  0.45981029  0.17837873  0.53089600    -0.13000
C293        C  0.99854053  0.20154477  0.52396606     0.09150
C294        C  0.03623199  0.20075762  0.53936942    -0.13000
H295        H  0.06445057  0.17711955  0.57324531     0.13140
H296        H  0.42790714  0.13798705  0.55816706     0.13140
H297        H  0.43046977  0.17873542  0.51917134     0.13140
H298        H  0.06642059  0.21845308  0.53418439     0.13140
C299        C  0.46374332  0.32209940  0.56199351    -0.13000
C300        C  0.50235890  0.34579737  0.56887176     0.09150
C301        C  0.03943335  0.34628177  0.55294413    -0.13000
C302        C  0.03800824  0.32329461  0.53061419    -0.13000
C303        C  0.99983601  0.29889564  0.52403717     0.09150
C304        C  0.46258996  0.29856551  0.53977825    -0.13000
H305        H  0.43470467  0.32131682  0.57392312     0.13140
H306        H  0.06944281  0.36469082  0.55759714     0.13140
H307        H  0.06697403  0.32389040  0.51861787     0.13140
H308        H  0.43277609  0.28001715  0.53485479     0.13140
C309        C  0.07320969  0.24842995  0.22267613    -0.12920
C310        C  0.04008214  0.24978926  0.23535258    -0.14480
C311        C  0.45962203  0.25061128  0.23536261    -0.12920
C312        C  0.42644265  0.25185043  0.22272762    -0.14480
C313        C  0.29262567  0.06119878  0.03428191    -0.13000
C314        C  0.25160120  0.04830544  0.02405924     0.09150
C315        C  0.21159026  0.05868316  0.03633514    -0.13000
C316        C  0.21261775  0.08185564  0.05867076    -0.13000
C317        C  0.25373557  0.09477443  0.06905183     0.09150
C318        C  0.29372967  0.08417328  0.05662165    -0.13000
H319        H  0.32379139  0.05304246  0.02508311     0.13140
H320        H  0.17967352  0.04868607  0.02863816     0.13140
H321        H  0.18129639  0.08962822  0.06780993     0.13140
H322        H  0.32596453  0.09356037  0.06406234     0.13140
C323        C  0.28765868  0.44594925  0.03772922    -0.13000
C324        C  0.24830681  0.45155560  0.02395261     0.09150
C325        C  0.20804723  0.43348924  0.03258504    -0.13000
C326        C  0.20694427  0.41045657  0.05491075    -0.13000
C327        C  0.24621519  0.40491843  0.06890335     0.09150
C328        C  0.28666100  0.42268218  0.06003588    -0.13000
H329        H  0.31902127  0.45974242  0.03122344     0.13140
H330        H  0.17737729  0.43771436  0.02218476     0.13140
H331        H  0.17530428  0.39693815  0.06109143     0.13140
H332        H  0.31741947  0.41882185  0.07040106     0.13140
C333        C  0.29207096  0.06472727  0.96835741    -0.13000
C334        C  0.25141720  0.04851841  0.97753719     0.09150
C335        C  0.21175329  0.05592228  0.96430344    -0.13000
C336        C  0.21279674  0.07919017  0.94200008    -0.13000
C337        C  0.25357634  0.09528189  0.93262628     0.09150
C338        C  0.29319171  0.08789047  0.94606923    -0.13000
H339        H  0.32298600  0.05902780  0.97832400     0.13140
H340        H  0.18010509  0.04350467  0.97122187     0.13140
H341        H  0.18177031  0.08445988  0.93206595     0.13140
H342        H  0.32513000  0.09998626  0.93947330     0.13140
C343        C  0.20653453  0.44086736  0.96668278    -0.13000
C344        C  0.24768720  0.45187267  0.97742004     0.09150
C345        C  0.28768011  0.43971198  0.96563250    -0.13000
C346        C  0.28651750  0.41668487  0.94325744    -0.13000
C347        C  0.24528709  0.40555216  0.93238895     0.09150
C348        C  0.20530366  0.41790130  0.94433761    -0.13000
H349        H  0.17540144  0.45042604  0.97550883     0.13140
H350        H  0.31969918  0.44826333  0.97372265     0.13140
H351        H  0.31783174  0.40754449  0.93449385     0.13140
H352        H  0.17299368  0.40997824  0.93648263     0.13140
C353        C  0.49728350  0.21007121  0.73527602    -0.12920
C354        C  0.49574605  0.17694041  0.72262518    -0.14480
C355        C  0.50139641  0.29042044  0.73532142    -0.12920
C356        C  0.50296033  0.32357746  0.72268344    -0.14480
C357        C  0.03949726  0.24804717  0.76618341    -0.12920
C358        C  0.07265280  0.24669271  0.77883882    -0.14480
C359        C  0.42595518  0.25354250  0.77881677    -0.12920
C360        C  0.45911951  0.25227682  0.76616571    -0.14480
C361        C  0.28944543  0.99826182  0.73532871    -0.12920
C362        C  0.32262769  0.99708252  0.72269213    -0.14480
C363        C  0.17592198  0.00345999  0.72263698    -0.12920
C364        C  0.20906152  0.00225042  0.73530985    -0.14480
C365        C  0.25281930  0.07347192  0.77888747    -0.12920
C366        C  0.25121930  0.04035708  0.76622433    -0.14480
C367        C  0.24728075  0.45999611  0.76616453    -0.12920
C368        C  0.24574481  0.42681620  0.77878305    -0.14480
C369        C  0.04616552  0.28711859  0.04015096    -0.13000
C370        C  0.04841378  0.25062131  0.02391734     0.09150
C371        C  0.07503474  0.21345225  0.02996852    -0.13000
C372        C  0.09815375  0.21214236  0.05226573    -0.13000
C373        C  0.09566357  0.24838988  0.06868949     0.09150
C374        C  0.06989455  0.28613520  0.06232717    -0.13000
H375        H  0.02596406  0.31621098  0.03564823     0.13140
H376        H  0.07719845  0.18507385  0.01761167     0.13140
H377        H  0.11822082  0.18286384  0.05653060     0.13140
H378        H  0.06756186  0.31452658  0.07465881     0.13140
C379        C  0.45217875  0.21321037  0.03976866    -0.13000
C380        C  0.45071272  0.25024867  0.02388825     0.09150
C381        C  0.42518572  0.28792416  0.03035005    -0.13000
C382        C  0.40231099  0.28914431  0.05271583    -0.13000
C383        C  0.40395668  0.25231957  0.06879117     0.09150
C384        C  0.42866602  0.21411226  0.06201110    -0.13000
H385        H  0.47164298  0.18378887  0.03494869     0.13140
H386        H  0.42372247  0.31674010  0.01826597     0.13140
H387        H  0.38309677  0.31882267  0.05729534     0.13140
H388        H  0.43034521  0.18527844  0.07406514     0.13140
C389        C  0.04784002  0.21002316  0.96295799    -0.13000
C390        C  0.04791045  0.24893019  0.97737626     0.09150
C391        C  0.07135483  0.28678698  0.96928376    -0.13000
C392        C  0.09395344  0.28598356  0.94677164    -0.13000
C393        C  0.09412204  0.24695508  0.93233715     0.09150
C394        C  0.07102658  0.20893355  0.94067452    -0.13000
H395        H  0.02978423  0.18058408  0.96899367     0.13140
H396        H  0.07152811  0.31709742  0.98023039     0.13140
H397        H  0.11171770  0.31563927  0.94079293     0.13140
H398        H  0.07040483  0.17851333  0.92985434     0.13140
C399        C  0.42691433  0.21434544  0.96955458    -0.13000
C400        C  0.45108393  0.25195890  0.97735126     0.09150
C401        C  0.45168450  0.29054230  0.96266323    -0.13000
C402        C  0.42837865  0.29152815  0.94040851    -0.13000
C403        C  0.40460279  0.25372461  0.93236356     0.09150
C404        C  0.40418676  0.21503396  0.94707196    -0.13000
H405        H  0.42626392  0.18429336  0.98071065     0.13140
H406        H  0.47022889  0.31982473  0.96847045     0.13140
H407        H  0.42943383  0.32168738  0.92937557     0.13140
H408        H  0.38586493  0.18556643  0.94132875     0.13140
C409        C  0.32309067  0.00158587  0.27883154    -0.12920
C410        C  0.28992663  0.00029718  0.26619054    -0.14480
C411        C  0.20946172  0.00006428  0.26620770    -0.12920
C412        C  0.17631052  0.99883483  0.27886109    -0.14480
C413        C  0.25126467  0.07347822  0.22264443    -0.12920
C414        C  0.24992932  0.04033521  0.23529709    -0.14480
C415        C  0.24810565  0.42670435  0.22273284    -0.12920
C416        C  0.24942767  0.45988102  0.23535545    -0.14480
C417        C  0.24968352  0.00014266  0.25076128    -0.02140
C418        C  0.47669883  0.75047932  0.00068471     0.00920
C419        C  0.02235935  0.75051107  0.00070459     0.00910
C420        C  0.24924364  0.00021823  0.75075950    -0.02140
C421        C  0.99932195  0.75020962  0.75073469    -0.02140
C422        C  0.24891218  0.97732204  0.00072449     0.00920
C423        C  0.25062596  0.52279672  0.00077053     0.00910
C424        C  0.24399563  0.88072351  0.90889242     0.43170
N425        N  0.26522322  0.84378403  0.87710162     0.01700
C426        C  0.13109287  0.70612451  0.80590402    -0.06180
H427        H  0.13275358  0.67101204  0.90090924     0.07190
C428        C  0.29405503  0.63741881  0.89637501    -0.06530
Co429      Co  0.18759205  0.80450323  0.85011723     0.74180
N430        N  0.15866005  0.72231102  0.87694461    -0.25710
Co431      Co  0.19516037  0.68856072  0.85019447     0.74070
C432        C  0.25475864  0.62000123  0.90909295     0.42910
N433        N  0.34278222  0.73403832  0.87720635     0.01310
N434        N  0.23344204  0.65663544  0.87720752     0.01420
N435        N  0.12686108  0.78189845  0.80662701    -0.46550
H436        H  0.16953357  0.86643997  0.90080038     0.07180
N437        N  0.15588367  0.76643581  0.87716060     0.01710
N438        N  0.23315867  0.65610004  0.82345934     0.01450
C439        C  0.25394201  0.61184380  0.79474773     0.43050
N440        N  0.34002035  0.77816155  0.87693146    -0.25160
C441        C  0.20506488  0.86853343  0.80577533    -0.06080
N442        N  0.28036337  0.86727790  0.89600419    -0.46270
N443        N  0.21778829  0.62781277  0.80675192    -0.46490
C444        C  0.24467168  0.88838689  0.79460696     0.42820
N445        N  0.15523187  0.76654752  0.82337032     0.01690
N446        N  0.34064317  0.77793162  0.82346586    -0.25180
N447        N  0.22113327  0.84083707  0.87690944    -0.25680
N448        N  0.34342894  0.73374126  0.82339196     0.01330
H449        H  0.37390260  0.82916833  0.80225405     0.07220
H450        H  0.32862374  0.62513286  0.80227906     0.07260
N451        N  0.15799688  0.72235458  0.82349421    -0.25730
N452        N  0.27752205  0.65972082  0.87703508    -0.25340
N453        N  0.26548357  0.84418163  0.82334769     0.01700
C454        C  0.11887965  0.74558165  0.90889181     0.43090
C455        C  0.36277046  0.79449362  0.89614339    -0.06590
N456        N  0.27735250  0.65871163  0.82351528    -0.25340
H457        H  0.32917632  0.63437279  0.90096814     0.07240
N458        N  0.13259993  0.78183067  0.89611929    -0.46560
H459        H  0.36594605  0.82953779  0.90084596     0.07230
C460        C  0.38754091  0.75452188  0.79466210     0.42930
C461        C  0.20464317  0.86336993  0.89618409    -0.06090
Co462      Co  0.30349227  0.81179727  0.85012830     0.73820
N463        N  0.36603557  0.71870861  0.89619945    -0.46280
C464        C  0.11106998  0.74570538  0.79468089     0.43200
N465        N  0.28083660  0.87245317  0.80662243    -0.46270
Co466      Co  0.31106352  0.69588933  0.85019089     0.73890
C467        C  0.29356358  0.63170406  0.80590120    -0.06600
C468        C  0.13591226  0.70604275  0.89616971    -0.06160
N469        N  0.22129120  0.84156599  0.82340499    -0.25690
N470        N  0.21835405  0.63315596  0.89613660    -0.46450
H471        H  0.12466762  0.67107144  0.80235302     0.07200
C472        C  0.36750874  0.79412225  0.80584781    -0.06570
Cl473      Cl  0.24932693  0.75018720  0.85002770    -0.49570
C474        C  0.37976622  0.75499930  0.90893075     0.42960
H475        H  0.17000112  0.87510688  0.80216289     0.07170
N476        N  0.37179016  0.71835212  0.80665525    -0.46280
C477        C  0.24656081  0.88831631  0.20689971     0.42810
N478        N  0.26676241  0.84400008  0.17810359     0.01700
C479        C  0.13764506  0.70709498  0.10469757    -0.06180
H480        H  0.12433466  0.67213441  0.19905735     0.07190
C481        C  0.29280168  0.63134373  0.19575779    -0.06530
Co482      Co  0.18837074  0.80496246  0.15141403     0.74180
N483        N  0.15815975  0.72308873  0.17789040    -0.25710
Co484      Co  0.19533743  0.68901701  0.15117504     0.74070
C485        C  0.25287556  0.61185478  0.20680092     0.42910
N486        N  0.34371556  0.73295532  0.17820451     0.01310
N487        N  0.23280160  0.65624437  0.17800555     0.01420
N488        N  0.13257449  0.78276131  0.10556587    -0.46550
H489        H  0.17170704  0.87574573  0.19946955     0.07180
N490        N  0.15587006  0.76730658  0.17810134     0.01710
N491        N  0.23360958  0.65674564  0.12426681     0.01450
C492        C  0.25491239  0.61962382  0.09254588     0.43050
N493        N  0.34139361  0.77717280  0.17802804    -0.25160
C494        C  0.20563115  0.86327211  0.10525013    -0.06080
N495        N  0.28248996  0.87207541  0.19481561    -0.46270
N496        N  0.21850269  0.63328762  0.10533772    -0.46490
C497        C  0.24499099  0.88041090  0.09249404     0.42820
N498        N  0.15611285  0.76719903  0.12440679     0.01690
N499        N  0.34026387  0.77729084  0.12445105    -0.25180
N500        N  0.22254315  0.84177619  0.17810591    -0.25680
N501        N  0.34361435  0.73320448  0.12450735     0.01330
H502        H  0.36518173  0.82841859  0.10009690     0.07220
H503        H  0.32938803  0.63336554  0.10088732     0.07260
N504        N  0.15952210  0.72311841  0.12427693    -0.25730
N505        N  0.27702290  0.65847236  0.17807795    -0.25340
N506        N  0.26618122  0.84366051  0.12436373     0.01700
C507        C  0.11154180  0.74692111  0.20678447     0.43090
C508        C  0.36844753  0.79311820  0.19563799    -0.06590
N509        N  0.27771405  0.65937503  0.12457882    -0.25340
H510        H  0.32776368  0.62445491  0.19949183     0.07240
N511        N  0.12772789  0.78293813  0.19486921    -0.46560
H512        H  0.37520309  0.82810161  0.19920768     0.07230
C513        C  0.37984114  0.75388193  0.09245276     0.42930
C514        C  0.20668561  0.86886177  0.19578169    -0.06090
Co515      Co  0.30433531  0.81131780  0.15130765     0.73820
N516        N  0.37188575  0.71730837  0.19495801    -0.46280
C517        C  0.11995417  0.74669264  0.09229722     0.43200
N518        N  0.28135739  0.86705590  0.10542128    -0.46270
Co519      Co  0.31130442  0.69533676  0.15145602     0.73890
C520        C  0.29424403  0.63673967  0.10535926    -0.06600
C521        C  0.13108678  0.70712164  0.19549219    -0.06160
N522        N  0.22208262  0.84089046  0.12457751    -0.25690
N523        N  0.21699876  0.62812252  0.19467689    -0.46450
H524        H  0.13471210  0.67212772  0.09978720     0.07200
C525        C  0.36222278  0.79341815  0.10493178    -0.06570
Cl526      Cl  0.24983921  0.75015435  0.15154124    -0.49570
C527        C  0.38803199  0.75331431  0.20689855     0.42960
H528        H  0.17051461  0.86658179  0.10069680     0.07170
N529        N  0.36712995  0.71773364  0.10563911    -0.46280
C530        C  0.13754312  0.50444276  0.70677067     0.42810
N531        N  0.09341098  0.98370853  0.67803634     0.01700
C532        C  0.45495803  0.61276773  0.60493183    -0.06180
H533        H  0.42002642  0.62534502  0.69916939     0.07190
C534        C  0.38110031  0.95647832  0.69571872    -0.06530
Co535      Co  0.05352432  0.56183545  0.65134368     0.74180
N536        N  0.47133944  0.59172910  0.67798510    -0.25710
Co537      Co  0.43761389  0.55459934  0.65130192     0.74070
C538        C  0.36108021  0.49610122  0.70687320     0.42910
N539        N  0.48306618  0.90625656  0.67815454     0.01310
N540        N  0.40519665  0.51681748  0.67812927     0.01420
N541        N  0.03063745  0.61742388  0.60553585    -0.46550
H542        H  0.12391202  0.57909979  0.69920826     0.07180
N543        N  0.01553656  0.59426865  0.67809444     0.01710
N544        N  0.40583792  0.51647776  0.62433188     0.01450
C545        C  0.36890540  0.49559110  0.59258551     0.43050
N546        N  0.02726433  0.90878207  0.67799271    -0.25160
C547        C  0.11270174  0.54442476  0.60528038    -0.06080
N548        N  0.12177576  0.96828866  0.69476754    -0.46270
N549        N  0.38267544  0.53185000  0.60532108    -0.46490
C550        C  0.12958717  0.50489557  0.59247496     0.42820
N551        N  0.01535409  0.59391085  0.62439698     0.01690
N552        N  0.02713862  0.90983315  0.62441013    -0.25180
N553        N  0.09063894  0.52790002  0.67798557    -0.25680
N554        N  0.48306301  0.90654188  0.62446051     0.01330
H555        H  0.07840771  0.88474668  0.60006548     0.07220
H556        H  0.38254099  0.92102241  0.60069658     0.07260
N557        N  0.47127634  0.59067216  0.62441178    -0.25730
N558        N  0.40796640  0.97262598  0.67809251    -0.25340
N559        N  0.09261651  0.98401057  0.62422604     0.01700
C560        C  0.49468830  0.63854614  0.70678316     0.43090
C561        C  0.04356036  0.88176886  0.69558429    -0.06590
N562        N  0.40848308  0.97234930  0.62462975    -0.25340
H563        H  0.37467748  0.92144117  0.69932347     0.07240
N564        N  0.03087616  0.62254362  0.69481799    -0.46560
H565        H  0.07863694  0.87514936  0.69913347     0.07230
C566        C  0.50392007  0.87016989  0.59244964     0.42930
C567        C  0.11751213  0.54405994  0.69560411    -0.06090
Co568      Co  0.06090672  0.94590675  0.65125192     0.73820
N569        N  0.46777555  0.87799804  0.69490391    -0.46280
C570        C  0.49439126  0.63030724  0.59240331     0.43200
N571        N  0.11580653  0.96863946  0.60522353    -0.46270
Co572      Co  0.44499337  0.93866193  0.65143267     0.73890
C573        C  0.38575312  0.95606044  0.60540094    -0.06600
C574        C  0.45509318  0.61873983  0.69558439    -0.06160
N575        N  0.08996638  0.52813852  0.62451318    -0.25690
N576        N  0.37683163  0.53224694  0.69485456    -0.46450
H577        H  0.41991284  0.61582445  0.60015082     0.07200
C578        C  0.04338633  0.88777371  0.60490578    -0.06570
Cl579      Cl  0.49926464  0.50025042  0.65146547    -0.49570
C580        C  0.50399549  0.86198261  0.70683658     0.42960
H581        H  0.11593901  0.57946496  0.60058048     0.07170
N582        N  0.46771452  0.88299075  0.60563043    -0.46280
C583        C  0.49683879  0.86203380  0.29471064     0.42810
N584        N  0.01709910  0.90635461  0.32342349     0.01700
C585        C  0.38576138  0.54420892  0.39613575    -0.06180
H586        H  0.37385773  0.57806853  0.30209156     0.07190
C587        C  0.04244654  0.61887937  0.30595184    -0.06530
Co588      Co  0.43867258  0.94563574  0.35028356     0.74180
N589        N  0.40795473  0.52733363  0.32346513    -0.25710
Co590      Co  0.44466721  0.56158011  0.35013724     0.74070
C591        C  0.50262233  0.63845781  0.29471038     0.42910
N592        N  0.09353074  0.51734848  0.32349034     0.01310
N593        N  0.48228541  0.59412547  0.32340605     0.01420
N594        N  0.38305813  0.96844195  0.39623425    -0.46550
H595        H  0.42200187  0.87478105  0.30235757     0.07180
N596        N  0.40584550  0.98312160  0.32348022     0.01710
N597        N  0.48246170  0.59387501  0.37712862     0.01450
C598        C  0.50318574  0.63056499  0.40903850     0.43050
N599        N  0.09141298  0.97313741  0.32348386    -0.25160
C600        C  0.45658556  0.88761354  0.39655109    -0.06080
N601        N  0.03281121  0.87821801  0.30667574    -0.46270
N602        N  0.46700234  0.61743117  0.39598343    -0.46490
C603        C  0.49611389  0.87012093  0.40910743     0.42820
N604        N  0.40631848  0.98371701  0.37726623     0.01690
N605        N  0.09067325  0.97265726  0.37695363    -0.25180
N606        N  0.47286962  0.90863814  0.32356771    -0.25680
N607        N  0.09298801  0.51677779  0.37726355     0.01330
H608        H  0.11701804  0.92120486  0.40073346     0.07220
H609        H  0.07779308  0.61627129  0.40114388     0.07260
N610        N  0.40863633  0.52783792  0.37694850    -0.25730
N611        N  0.02651336  0.59181729  0.32355891    -0.25340
N612        N  0.01687041  0.90659878  0.37714081     0.01700
C613        C  0.36147645  0.50320161  0.29467694     0.43090
C614        C  0.11855910  0.95734107  0.30582078    -0.06590
N615        N  0.02657156  0.59079043  0.37709005    -0.25340
H616        H  0.07743509  0.62565993  0.30238225     0.07240
N617        N  0.37780180  0.96732195  0.30676817    -0.46560
H618        H  0.12552988  0.92238637  0.30213951     0.07230
C619        C  0.13028549  0.49574250  0.40895818     0.42930
C620        C  0.45698068  0.88157271  0.30594820    -0.06090
Co621      Co  0.05467975  0.93889864  0.35015088     0.73820
N622        N  0.12160348  0.53313492  0.30678591    -0.46280
C623        C  0.36899835  0.50475970  0.40895811     0.43200
N624        N  0.03231634  0.88307596  0.39601643    -0.46270
Co625      Co  0.06067645  0.55485244  0.35027722     0.73890
C626        C  0.04273782  0.61309341  0.39647100    -0.06600
C627        C  0.38082888  0.54311673  0.30578610    -0.06160
N628        N  0.47276336  0.90976169  0.37711891    -0.25690
N629        N  0.46661523  0.62229731  0.30665953    -0.46450
H630        H  0.38227206  0.57929312  0.40071893     0.07200
C631        C  0.11353060  0.95628893  0.39614562    -0.06570
Cl632      Cl  0.49967753  0.50024232  0.35008629    -0.49570
C633        C  0.13794573  0.49724495  0.29471089     0.42960
H634        H  0.42154087  0.88449063  0.40126574     0.07170
N635        N  0.11622992  0.53206056  0.39623032    -0.46280
C636        C  0.99963626  0.77304750  0.50079560     0.00920
C637        C  0.99888405  0.72747303  0.50076947     0.00910
C638        C  0.27231097  0.00039751  0.50079406     0.00920
C639        C  0.22672120  0.00016895  0.50080984     0.00910
C640        C  0.99985421  0.75024443  0.25079609    -0.02140
C641        C  0.49838433  0.82365790  0.27885841    -0.12920
C642        C  0.49963278  0.79049559  0.26621357    -0.14480
C643        C  0.50116814  0.67687199  0.27888781    -0.12920
C644        C  0.50003698  0.71004436  0.26624909    -0.14480
C645        C  0.46157252  0.67501892  0.44079704    -0.13000
C646        C  0.50166093  0.65514192  0.43259427     0.09150
C647        C  0.04034366  0.65862257  0.44721746    -0.13000
C648        C  0.03899831  0.68154091  0.46955794    -0.13000
C649        C  0.99919217  0.70183376  0.47750073     0.09150
C650        C  0.46042699  0.69848458  0.46305559    -0.13000
H651        H  0.43128145  0.67276892  0.42991044     0.13140
H652        H  0.07165239  0.64340731  0.44156415     0.13140
H653        H  0.06917689  0.68400330  0.48053826     0.13140
H654        H  0.42945211  0.71409307  0.46902073     0.13140
C655        C  0.45962469  0.84473149  0.44800278    -0.13000
C656        C  0.49756463  0.84570468  0.43269612     0.09150
C657        C  0.03679357  0.82338072  0.44020634    -0.13000
C658        C  0.03773882  0.79983214  0.46243897    -0.13000
C659        C  0.99964608  0.79879281  0.47753891     0.09150
C660        C  0.46079708  0.82169802  0.47031508    -0.13000
H661        H  0.42906958  0.86201068  0.44288900     0.13140
H662        H  0.06649786  0.82371318  0.42877276     0.13140
H663        H  0.06803817  0.78235595  0.46787439     0.13140
H664        H  0.43117590  0.82117051  0.48182360     0.13140
C665        C  0.17400882  0.95762040  0.44221018    -0.13000
C666        C  0.15510403  0.49699498  0.43243180     0.09150
C667        C  0.15955580  0.53738837  0.44546595    -0.13000
C668        C  0.18223136  0.53826195  0.46795629    -0.13000
C669        C  0.20119669  0.99892415  0.47751952     0.09150
C670        C  0.19706833  0.95864954  0.46453294    -0.13000
H671        H  0.17139807  0.92605044  0.43255567     0.13140
H672        H  0.14519493  0.56817563  0.43838500     0.13140
H673        H  0.18547202  0.56964813  0.47777999     0.13140
H674        H  0.21182307  0.92809841  0.47168802     0.13140
C675        C  0.33976616  0.96317380  0.44552375    -0.13000
C676        C  0.34410766  0.50351731  0.43242235     0.09150
C677        C  0.32499776  0.54285970  0.44212471    -0.13000
C678        C  0.30186636  0.54184670  0.46443201    -0.13000
C679        C  0.29784620  0.00162246  0.47748841     0.09150
C680        C  0.31702467  0.96231972  0.46800068    -0.13000
H681        H  0.35428169  0.93241228  0.43850840     0.13140
H682        H  0.32751482  0.57439253  0.43242058     0.13140
H683        H  0.28698096  0.57237854  0.47152561     0.13140
H684        H  0.31390187  0.93097022  0.47787565     0.13140
C685        C  0.17767232  0.54151924  0.56077500    -0.13000
C686        C  0.15441228  0.50354410  0.56903311     0.09150
C687        C  0.15454821  0.96457499  0.55454231    -0.13000
C688        C  0.17731998  0.96377738  0.53207083    -0.13000
C689        C  0.20094181  0.00159848  0.52406183     0.09150
C690        C  0.20100277  0.54044341  0.53853250    -0.13000
H691        H  0.17832707  0.57189439  0.57163249     0.13140
H692        H  0.13666314  0.93494980  0.56045539     0.13140
H693        H  0.17714791  0.93348985  0.52110803     0.13140
H694        H  0.21917812  0.56986232  0.53257423     0.13140
C695        C  0.34430362  0.53589806  0.55458651    -0.13000
C696        C  0.34427104  0.49694646  0.56909609     0.09150
C697        C  0.32102558  0.95898785  0.56081016    -0.13000
C698        C  0.29786674  0.96006787  0.53851982    -0.13000
C699        C  0.29806610  0.99890497  0.52403934     0.09150
C700        C  0.32169348  0.53670268  0.53207045    -0.13000
H701        H  0.36218691  0.56550557  0.56052448     0.13140
H702        H  0.32024524  0.92863093  0.57168480     0.13140
H703        H  0.27967586  0.93067435  0.53254177     0.13140
H704        H  0.32196091  0.56698336  0.52109801     0.13140
C705        C  0.03503449  0.67724421  0.56159102    -0.13000
C706        C  0.49592262  0.65471751  0.56882431     0.09150
C707        C  0.45835464  0.65542278  0.55324041    -0.13000
C708        C  0.45981558  0.67837780  0.53089634    -0.13000
C709        C  0.99854497  0.70154479  0.52396611     0.09150
C710        C  0.03623676  0.70075865  0.53936924    -0.13000
H711        H  0.06445665  0.67712106  0.57324497     0.13140
H712        H  0.42791402  0.63798529  0.55816752     0.13140
H713        H  0.43047481  0.67873371  0.51917187     0.13140
H714        H  0.06642475  0.71845498  0.53418403     0.13140
C715        C  0.46373812  0.82209795  0.56199335    -0.13000
C716        C  0.50235253  0.84579783  0.56887161     0.09150
C717        C  0.03942710  0.84628403  0.55294394    -0.13000
C718        C  0.03800322  0.82329665  0.53061406    -0.13000
C719        C  0.99983226  0.79889573  0.52403705     0.09150
C720        C  0.46258606  0.79856380  0.53977811    -0.13000
H721        H  0.43469952  0.82131397  0.57392297     0.13140
H722        H  0.06943565  0.86469457  0.55759692     0.13140
H723        H  0.06696901  0.82389381  0.51861777     0.13140
H724        H  0.43277319  0.78001385  0.53485465     0.13140
C725        C  0.07321033  0.74843065  0.22267643    -0.12920
C726        C  0.04008278  0.74979058  0.23535287    -0.14480
C727        C  0.45962264  0.75060969  0.23536250    -0.12920
C728        C  0.42644327  0.75184941  0.22272751    -0.14480
C729        C  0.29262654  0.56119967  0.03428169    -0.13000
C730        C  0.25160209  0.54830582  0.02405917     0.09150
C731        C  0.21159120  0.55868290  0.03633527    -0.13000
C732        C  0.21261869  0.58185526  0.05867092    -0.13000
C733        C  0.25373648  0.59477455  0.06905183     0.09150
C734        C  0.29373055  0.58417406  0.05662146    -0.13000
H735        H  0.32379223  0.55304379  0.02508274     0.13140
H736        H  0.17967448  0.54868540  0.02863842     0.13140
H737        H  0.18129736  0.58962734  0.06781025     0.13140
H738        H  0.32596538  0.59356155  0.06406202     0.13140
C739        C  0.28765780  0.94594898  0.03772924    -0.13000
C740        C  0.24830590  0.95155521  0.02395265     0.09150
C741        C  0.20804638  0.93348872  0.03258509    -0.13000
C742        C  0.20694352  0.91045609  0.05491082    -0.13000
C743        C  0.24621448  0.90491813  0.06890342     0.09150
C744        C  0.28666022  0.92268197  0.06003592    -0.13000
H745        H  0.31902035  0.95974220  0.03122343     0.13140
H746        H  0.17737642  0.93771374  0.02218482     0.13140
H747        H  0.17530359  0.89693759  0.06109152     0.13140
H748        H  0.31741872  0.91882176  0.07040109     0.13140
C749        C  0.29207150  0.56472782  0.96835728    -0.13000
C750        C  0.25141787  0.54851878  0.97753712     0.09150
C751        C  0.21175386  0.55592243  0.96430341    -0.13000
C752        C  0.21279709  0.57919023  0.94200002    -0.13000
C753        C  0.25357657  0.59528212  0.93262615     0.09150
C754        C  0.29319203  0.58789095  0.94606907    -0.13000
H755        H  0.32298662  0.55902852  0.97832382     0.13140
H756        H  0.18010575  0.54350469  0.97122190     0.13140
H757        H  0.18177060  0.58445975  0.93206592     0.13140
H758        H  0.32513024  0.59998686  0.93947309     0.13140
C759        C  0.20653348  0.94086700  0.96668282    -0.13000
C760        C  0.24768616  0.95187230  0.97742007     0.09150
C761        C  0.28767906  0.93971160  0.96563253    -0.13000
C762        C  0.28651643  0.91668453  0.94325746    -0.13000
C763        C  0.24528602  0.90555183  0.93238897     0.09150
C764        C  0.20530260  0.91790095  0.94433764    -0.13000
H765        H  0.17540040  0.95042569  0.97550887     0.13140
H766        H  0.31969813  0.94826293  0.97372269     0.13140
H767        H  0.31783068  0.90754415  0.93449387     0.13140
H768        H  0.17299262  0.90997791  0.93648266     0.13140
C769        C  0.49728541  0.71007122  0.73527592    -0.12920
C770        C  0.49575087  0.67694025  0.72262510    -0.14480
C771        C  0.50139382  0.79042064  0.73532128    -0.12920
C772        C  0.50295519  0.82357775  0.72268329    -0.14480
C773        C  0.03949660  0.74804879  0.76618332    -0.12920
C774        C  0.07265212  0.74669384  0.77883873    -0.14480
C775        C  0.42595432  0.75354169  0.77881647    -0.12920
C776        C  0.45911873  0.75227551  0.76616548    -0.14480
C777        C  0.28945377  0.49826165  0.73532938    -0.12920
C778        C  0.32263620  0.49708241  0.72269286    -0.14480
C779        C  0.17593044  0.50345955  0.72263632    -0.12920
C780        C  0.20906985  0.50224992  0.73530921    -0.14480
C781        C  0.25282271  0.57347172  0.77888749    -0.12920
C782        C  0.25122497  0.54035672  0.76622439    -0.14480
C783        C  0.24727466  0.95999650  0.76616457    -0.12920
C784        C  0.24574055  0.92681651  0.77878311    -0.14480
C785        C  0.04616363  0.78711683  0.04015182    -0.13000
C786        C  0.04841384  0.75062082  0.02391740     0.09150
C787        C  0.07503705  0.71345286  0.02996779    -0.13000
C788        C  0.09815613  0.71214268  0.05226500    -0.13000
C789        C  0.09566381  0.74838886  0.06868955     0.09150
C790        C  0.06989268  0.78613317  0.06232802    -0.13000
H791        H  0.02596064  0.81620849  0.03564972     0.13140
H792        H  0.07720244  0.68507547  0.01761033     0.13140
H793        H  0.11822491  0.68286504  0.05652929     0.13140
H794        H  0.06755835  0.81452353  0.07466027     0.13140
C795        C  0.45217958  0.71321174  0.03976895    -0.13000
C796        C  0.45071210  0.75024926  0.02388803     0.09150
C797        C  0.42518337  0.78792395  0.03034926    -0.13000
C798        C  0.40230868  0.78914426  0.05271505    -0.13000
C799        C  0.40395606  0.75232040  0.06879094     0.09150
C800        C  0.42866686  0.71411374  0.06201138    -0.13000
H801        H  0.47164507  0.68379083  0.03494943     0.13140
H802        H  0.42371890  0.81673926  0.01826477     0.13140
H803        H  0.38309323  0.81882203  0.05729420     0.13140
H804        H  0.43034731  0.68528058  0.07406585     0.13140
C805        C  0.04784053  0.71002214  0.96295835    -0.13000
C806        C  0.04791037  0.74892959  0.97737628     0.09150
C807        C  0.07135399  0.78678657  0.96928340    -0.13000
C808        C  0.09395246  0.78598290  0.94677125    -0.13000
C809        C  0.09412169  0.74695401  0.93233710     0.09150
C810        C  0.07102699  0.70893229  0.94067484    -0.13000
H811        H  0.02978525  0.68058294  0.96899432     0.13140
H812        H  0.07152675  0.81709734  0.98022976     0.13140
H813        H  0.11171610  0.81563879  0.94079225     0.13140
H814        H  0.07040572  0.67851174  0.92985492     0.13140
C815        C  0.42691479  0.71434607  0.96955417    -0.13000
C816        C  0.45108404  0.75195964  0.97735103     0.09150
C817        C  0.45168426  0.79054323  0.96266313    -0.13000
C818        C  0.42837832  0.79152920  0.94040843    -0.13000
C819        C  0.40460272  0.75372559  0.93236333     0.09150
C820        C  0.40418714  0.71503471  0.94707158    -0.13000
H821        H  0.42626463  0.68429384  0.98071013     0.13140
H822        H  0.47022837  0.81982576  0.96847048     0.13140
H823        H  0.42943316  0.82168860  0.92937561     0.13140
H824        H  0.38586556  0.68556710  0.94132827     0.13140
C825        C  0.32310014  0.50158576  0.27883106    -0.12920
C826        C  0.28993608  0.50029696  0.26619000    -0.14480
C827        C  0.20947117  0.50006406  0.26620841    -0.12920
C828        C  0.17631999  0.49883450  0.27886174    -0.14480
C829        C  0.25126945  0.57347812  0.22264451    -0.12920
C830        C  0.24993630  0.54033505  0.23529719    -0.14480
C831        C  0.24810127  0.92670435  0.22273281    -0.12920
C832        C  0.24942081  0.95988116  0.23535539    -0.14480
C833        C  0.74969202  0.50014253  0.25076136    -0.02140
C834        C  0.97669897  0.25047860  0.00068484     0.00920
C835        C  0.52235941  0.25051127  0.00070458     0.00910
C836        C  0.74925100  0.50021793  0.75075963    -0.02140
C837        C  0.49932263  0.25020948  0.75073485    -0.02140
C838        C  0.74891339  0.47732237  0.00072448     0.00920
C839        C  0.75062516  0.02279637  0.00077067     0.00910
C840        C  0.74399670  0.38072374  0.90889245     0.43170
N841        N  0.76522421  0.34378381  0.87710180     0.01700
C842        C  0.63109347  0.20612437  0.80590442    -0.06180
H843        H  0.63275402  0.17101301  0.90090956     0.07190
C844        C  0.79405507  0.13741814  0.89637510    -0.06530
Co845      Co  0.68759291  0.30450366  0.85011722     0.74180
N846        N  0.65866060  0.22231179  0.87694485    -0.25710
Co847      Co  0.69516061  0.18856111  0.85019481     0.74070
C848        C  0.75475857  0.12000101  0.90909313     0.42910
N849        N  0.84278269  0.23403745  0.87720647     0.01310
N850        N  0.73344214  0.15663559  0.87720780     0.01420
N851        N  0.62686172  0.28189833  0.80662691    -0.46550
H852        H  0.66953456  0.36644097  0.90080019     0.07180
N853        N  0.65588425  0.26643658  0.87716070     0.01710
N854        N  0.73315832  0.15610013  0.82345968     0.01450
C855        C  0.75394018  0.11184375  0.79474786     0.43050
N856        N  0.84002085  0.27816068  0.87693169    -0.25160
C857        C  0.70506713  0.36853383  0.80577516    -0.06080
N858        N  0.78036442  0.36727764  0.89600436    -0.46270
N859        N  0.71778709  0.12781328  0.80675231    -0.46490
C860        C  0.74467455  0.38838669  0.79460700     0.42820
N861        N  0.65523252  0.26654777  0.82337035     0.01690
N862        N  0.84064386  0.27793109  0.82346618    -0.25180
N863        N  0.72113423  0.34083738  0.87690946    -0.25680
N864        N  0.84342949  0.23374072  0.82339205     0.01330
H865        H  0.87390343  0.32916821  0.80225478     0.07220
H866        H  0.82862239  0.12513162  0.80227870     0.07260
N867        N  0.65799739  0.22235483  0.82349451    -0.25730
N868        N  0.77752218  0.15972039  0.87703521    -0.25340
N869        N  0.76548507  0.34418127  0.82334792     0.01700
C870        C  0.61888025  0.24558268  0.90889197     0.43090
C871        C  0.86277082  0.29449263  0.89614367    -0.06590
N872        N  0.77735218  0.15871116  0.82351535    -0.25340
H873        H  0.82917637  0.13437168  0.90096814     0.07240
N874        N  0.63260057  0.28183162  0.89611939    -0.46560
H875        H  0.86594641  0.32953678  0.90084630     0.07230
C876        C  0.88754171  0.25452198  0.79466241     0.42930
C877        C  0.70464417  0.36337053  0.89618402    -0.06090
Co878      Co  0.80349316  0.31179671  0.85012858     0.73820
N879        N  0.86603586  0.21870761  0.89619961    -0.46280
C880        C  0.61107065  0.24570492  0.79468103     0.43200
N881        N  0.78083889  0.37245245  0.80662272    -0.46270
Co882      Co  0.81106380  0.19588869  0.85019096     0.73890
C883        C  0.79356243  0.13170333  0.80590112    -0.06600
C884        C  0.63591279  0.20604369  0.89616997    -0.06160
N885        N  0.72129267  0.34156615  0.82340497    -0.25690
N886        N  0.71835404  0.13315623  0.89613689    -0.46450
H887        H  0.62466823  0.17107121  0.80235365     0.07200
C888        C  0.86750951  0.29412206  0.80584830    -0.06570
Cl889      Cl  0.74932750  0.25018711  0.85002787    -0.49570
C890        C  0.87976642  0.25499824  0.90893099     0.42960
H891        H  0.67000355  0.37510778  0.80216247     0.07170
N892        N  0.87179088  0.21835191  0.80665531    -0.46280
C893        C  0.74656330  0.38831653  0.20689966     0.42810
N894        N  0.76676317  0.34399997  0.17810338     0.01700
C895        C  0.63764438  0.20709603  0.10469766    -0.06180
H896        H  0.62433395  0.17213470  0.19905677     0.07190
C897        C  0.79279924  0.13134310  0.19575808    -0.06530
Co898      Co  0.68837075  0.30496324  0.15141413     0.74180
N899        N  0.65815922  0.22308943  0.17789025    -0.25710
Co900      Co  0.69533662  0.18901771  0.15117491     0.74070
C901        C  0.75287241  0.11185484  0.20680094     0.42910
N902        N  0.84371501  0.23295492  0.17820469     0.01310
N903        N  0.73280006  0.15624476  0.17800544     0.01420
N904        N  0.63257424  0.28276239  0.10556587    -0.46550
H905        H  0.67170898  0.37574740  0.19947005     0.07180
N906        N  0.65586973  0.26730729  0.17810143     0.01710
N907        N  0.73360864  0.15674600  0.12426674     0.01450
C908        C  0.75491137  0.11962381  0.09254592     0.43050
N909        N  0.84139327  0.27717241  0.17802792    -0.25160
C910        C  0.70563153  0.36327277  0.10525017    -0.06080
N911        N  0.78249170  0.37207488  0.19481529    -0.46270
N912        N  0.71850167  0.13328814  0.10533760    -0.46490
C913        C  0.74499150  0.38041099  0.09249396     0.42820
N914        N  0.65611253  0.26720005  0.12440681     0.01690
N915        N  0.84026370  0.27728995  0.12445103    -0.25180
N916        N  0.72254387  0.34177679  0.17810599    -0.25680
N917        N  0.84361407  0.23320359  0.12450744     0.01330
H918        H  0.86518214  0.32841759  0.10009705     0.07220
H919        H  0.82938709  0.13336458  0.10088766     0.07260
N920        N  0.65952162  0.22311943  0.12427693    -0.25730
N921        N  0.77702140  0.15847210  0.17807812    -0.25340
N922        N  0.76618150  0.34366028  0.12436357     0.01700
C923        C  0.61154120  0.24692117  0.20678434     0.43090
C924        C  0.86844707  0.29311819  0.19563778    -0.06590
N925        N  0.77771314  0.15937475  0.12457895    -0.25340
H926        H  0.82776102  0.12445363  0.19949238     0.07240
N927        N  0.62772740  0.28293851  0.19486934    -0.46560
H928        H  0.87520268  0.32810167  0.19920722     0.07230
C929        C  0.87984134  0.25388088  0.09245295     0.42930
C930        C  0.70668731  0.36886277  0.19578190    -0.06090
Co931      Co  0.80433537  0.31131731  0.15130748     0.73820
N932        N  0.87188515  0.21730833  0.19495834    -0.46280
C933        C  0.61995369  0.24669370  0.09229727     0.43200
N934        N  0.78135783  0.36705546  0.10542109    -0.46270
Co935      Co  0.81130366  0.19533623  0.15145621     0.73890
C936        C  0.79424307  0.13673915  0.10535946    -0.06600
C937        C  0.63108618  0.20712200  0.19549187    -0.06160
N938        N  0.72208285  0.34089090  0.12457751    -0.25690
N939        N  0.71699630  0.12812327  0.19467666    -0.46450
H940        H  0.63471121  0.17212874  0.09978740     0.07200
C941        C  0.86222293  0.29341714  0.10493187    -0.06570
Cl942      Cl  0.74983883  0.25015446  0.15154123    -0.49570
C943        C  0.88803138  0.25331461  0.20689864     0.42960
H944        H  0.67051498  0.36658293  0.10069693     0.07170
N945        N  0.86712985  0.21773262  0.10563928    -0.46280
C946        C  0.63753495  0.00444318  0.70677104     0.42810
N947        N  0.59341887  0.48370814  0.67803627     0.01700
C948        C  0.95495040  0.11276807  0.60493162    -0.06180
H949        H  0.92001946  0.12534647  0.69916963     0.07190
C950        C  0.88110829  0.45647815  0.69571914    -0.06530
Co951      Co  0.55351660  0.06183571  0.65134368     0.74180
N952        N  0.97133171  0.09172970  0.67798510    -0.25710
Co953      Co  0.93760593  0.05459980  0.65130181     0.74070
C954        C  0.86107186  0.99610139  0.70687270     0.42910
N955        N  0.98307358  0.40625647  0.67815463     0.01310
N956        N  0.90518873  0.01681778  0.67812906     0.01420
N957        N  0.53063000  0.11742400  0.60553589    -0.46550
H958        H  0.62390376  0.07910020  0.69920860     0.07180
N959        N  0.51552911  0.09426874  0.67809436     0.01710
N960        N  0.90582987  0.01647815  0.62433170     0.01450
C961        C  0.86889703  0.99559151  0.59258538     0.43050
N962        N  0.52727206  0.40878145  0.67799286    -0.25160
C963        C  0.61269372  0.04442526  0.60528037    -0.06080
N964        N  0.62178389  0.46828827  0.69476733    -0.46270
N965        N  0.88266720  0.03185038  0.60532095    -0.46490
C966        C  0.62957904  0.00489610  0.59247493     0.42820
N967        N  0.51534641  0.09391112  0.62439700     0.01690
N968        N  0.52714641  0.40983266  0.62441019    -0.25180
N969        N  0.59063124  0.02790042  0.67798564    -0.25680
N970        N  0.98307053  0.40654158  0.62446070     0.01330
H971        H  0.57841511  0.38474604  0.60006530     0.07220
H972        H  0.88254902  0.42102204  0.60069670     0.07260
N973        N  0.97126845  0.09067256  0.62441169    -0.25730
N974        N  0.90797407  0.47262572  0.67809273    -0.25340
N975        N  0.59262448  0.48401012  0.62422601     0.01700
C976        C  0.99468176  0.13854646  0.70678317     0.43090
C977        C  0.54356756  0.38176789  0.69558448    -0.06590
N978        N  0.90849085  0.47234896  0.62462992    -0.25340
H979        H  0.87468565  0.42144101  0.69932402     0.07240
N980        N  0.53086935  0.12254335  0.69481788    -0.46560
H981        H  0.57864401  0.37514790  0.69913376     0.07230
C982        C  0.00392706  0.37016948  0.59244977     0.42930
C983        C  0.61750410  0.04406035  0.69560435    -0.06090
Co984      Co  0.56091462  0.44590624  0.65125194     0.73820
N985        N  0.96778240  0.37799826  0.69490397    -0.46280
C986        C  0.99438386  0.13030740  0.59240322     0.43200
N987        N  0.61581462  0.46863900  0.60522352    -0.46270
Co988      Co  0.94500101  0.43866173  0.65143284     0.73890
C989        C  0.88576107  0.45606007  0.60540107    -0.06600
C990        C  0.95508608  0.11874077  0.69558447    -0.06160
N991        N  0.58995857  0.02813896  0.62451321    -0.25690
N992        N  0.87682344  0.03224717  0.69485422    -0.46450
H993        H  0.91990528  0.11582480  0.60015045     0.07200
C994        C  0.54339381  0.38777316  0.60490575    -0.06570
Cl995      Cl  0.99925667  0.00025077  0.65146539    -0.49570
C996        C  0.00400189  0.36198223  0.70683672     0.42960
H997        H  0.61593084  0.07946547  0.60058045     0.07170
N998        N  0.96772176  0.38299053  0.60563068    -0.46280
C999        C  0.99684557  0.36203388  0.29471070     0.42810
N1000       N  0.51710719  0.40635421  0.32342341     0.01700
C1001       C  0.88575170  0.04420891  0.39613534    -0.06180
H1002       H  0.87384863  0.07806866  0.30209177     0.07190
C1003       C  0.54243857  0.11887884  0.30595189    -0.06530
Co1004     Co  0.93868147  0.44563587  0.35028376     0.74180
N1005       N  0.90794622  0.02733370  0.32346499    -0.25710
Co1006     Co  0.94465839  0.06158034  0.35013710     0.74070
C1007       C  0.00261531  0.13845777  0.29471031     0.42910
N1008       N  0.59352199  0.01734872  0.32349039     0.01310
N1009       N  0.98227707  0.09412582  0.32340593     0.01420
N1010       N  0.88306777  0.46844201  0.39623468    -0.46550
H1011       H  0.92200915  0.37478240  0.30235808     0.07180
N1012       N  0.90585415  0.48312162  0.32348045     0.01710
N1013       N  0.98245268  0.09387525  0.37712861     0.01450
C1014       C  0.00317717  0.13056530  0.40903839     0.43050
N1015       N  0.59142148  0.47313720  0.32348373    -0.25160
C1016       C  0.95659430  0.38761373  0.39655107    -0.06080
N1017       N  0.53281846  0.37821731  0.30667553    -0.46270
N1018       N  0.96699352  0.11743153  0.39598346    -0.46490
C1019       C  0.99612236  0.37012097  0.40910752     0.42820
N1020       N  0.90632779  0.48371704  0.37726653     0.01690
N1021       N  0.59068241  0.47265697  0.37695341    -0.25180
N1022       N  0.97287796  0.40863840  0.32356790    -0.25680
N1023       N  0.59297856  0.01677810  0.37726370     0.01330
H1024       H  0.61702773  0.42120454  0.40073305     0.07220
H1025       H  0.57778410  0.11627153  0.40114339     0.07260
N1026       N  0.90862715  0.02783796  0.37694824    -0.25730
N1027       N  0.52650468  0.09181716  0.32355889    -0.25340
N1028       N  0.51687924  0.40659852  0.37714085     0.01700
C1029       C  0.86146750  0.00320177  0.29467708     0.43090
C1030       C  0.61856791  0.45734086  0.30582082    -0.06590
N1031       N  0.52656226  0.09079061  0.37708989    -0.25340
H1032       H  0.57742729  0.12565891  0.30238250     0.07240
N1033       N  0.87781070  0.46732195  0.30676825    -0.46560
H1034       H  0.62553896  0.42238617  0.30213968     0.07230
C1035       C  0.63027532  0.99574289  0.40895855     0.42930
C1036       C  0.95698816  0.38157344  0.30594847    -0.06090
Co1037     Co  0.55468846  0.43889829  0.35015077     0.73820
N1038       N  0.62159445  0.03313519  0.30678581    -0.46280
C1039       C  0.86898844  0.00475965  0.40895760     0.43200
N1040       N  0.53232495  0.38307568  0.39601656    -0.46270
Co1041     Co  0.56066735  0.05485255  0.35027723     0.73890
C1042       C  0.54272876  0.11309366  0.39647070    -0.06600
C1043       C  0.88082007  0.04311686  0.30578614    -0.06160
N1044       N  0.97277238  0.40976173  0.37711896    -0.25690
N1045       N  0.96660762  0.12229793  0.30665930    -0.46450
H1046       H  0.88226219  0.07929311  0.40071849     0.07200
C1047       C  0.61354019  0.45628863  0.39614526    -0.06570
Cl1048     Cl  0.99966872  0.00024247  0.35008627    -0.49570
C1049       C  0.63793657  0.99724525  0.29471067     0.42960
H1050       H  0.92154955  0.38449103  0.40126560     0.07170
N1051       N  0.61622001  0.03206093  0.39623061    -0.46280
C1052       C  0.49963842  0.27304752  0.50079565     0.00920
C1053       C  0.49888098  0.22747316  0.50076943     0.00910
C1054       C  0.77231987  0.50039742  0.50079413     0.00920
C1055       C  0.72673011  0.50016866  0.50080982     0.00910
C1056       C  0.49985354  0.25024454  0.25079593    -0.02140
C1057       C  0.99838925  0.32365794  0.27885846    -0.12920
C1058       C  0.99963470  0.29049562  0.26621357    -0.14480
C1059       C  0.00116277  0.17687202  0.27888776    -0.12920
C1060       C  0.00003438  0.21004443  0.26624902    -0.14480
C1061       C  0.96156560  0.17502006  0.44079740    -0.13000
C1062       C  0.00165326  0.15514211  0.43259422     0.09150
C1063       C  0.54033640  0.15862185  0.44721695    -0.13000
C1064       C  0.53899250  0.18154022  0.46955741    -0.13000
C1065       C  0.49918722  0.20183405  0.47750064     0.09150
C1066       C  0.96042148  0.19848583  0.46305598    -0.13000
H1067       H  0.93127412  0.17277078  0.42991109     0.13140
H1068       H  0.57164458  0.14340583  0.44156337     0.13140
H1069       H  0.56917158  0.18400182  0.48053737     0.13140
H1070       H  0.92944723  0.21409514  0.46902146     0.13140
C1071       C  0.95963202  0.34473410  0.44800292    -0.13000
C1072       C  0.99757212  0.34570508  0.43269633     0.09150
C1073       C  0.53679969  0.32337893  0.44020660    -0.13000
C1074       C  0.53774333  0.29983015  0.46243922    -0.13000
C1075       C  0.49965030  0.29879293  0.47753902     0.09150
C1076       C  0.96080279  0.32170047  0.47031515    -0.13000
H1077       H  0.92907793  0.36201509  0.44288912     0.13140
H1078       H  0.56650404  0.32370969  0.42877304     0.13140
H1079       H  0.56804158  0.28235213  0.46787471     0.13140
H1080       H  0.93118145  0.32117466  0.48182357     0.13140
C1081       C  0.67401786  0.45761993  0.44221011    -0.13000
C1082       C  0.65509382  0.99699534  0.43243215     0.09150
C1083       C  0.65954472  0.03738850  0.44546659    -0.13000
C1084       C  0.68222068  0.03826206  0.46795680    -0.13000
C1085       C  0.70120593  0.49892386  0.47751937     0.09150
C1086       C  0.69707694  0.45864906  0.46453302    -0.13000
H1087       H  0.67140651  0.42604979  0.43255584     0.13140
H1088       H  0.64518292  0.06817557  0.43838596     0.13140
H1089       H  0.68546070  0.06964805  0.47778075     0.13140
H1090       H  0.71183084  0.42809776  0.47168840     0.13140
C1091       C  0.83977507  0.46317365  0.44552389    -0.13000
C1092       C  0.84409765  0.00351722  0.43242182     0.09150
C1093       C  0.82498677  0.04285940  0.44212388    -0.13000
C1094       C  0.80185573  0.04184648  0.46443130    -0.13000
C1095       C  0.79785539  0.50162238  0.47748861     0.09150
C1096       C  0.81703311  0.46231945  0.46800066    -0.13000
H1097       H  0.85428993  0.43241197  0.43850832     0.13140
H1098       H  0.82750288  0.07439198  0.43241943     0.13140
H1099       H  0.78696960  0.07237815  0.47152467     0.13140
H1100       H  0.81390936  0.43096975  0.47787533     0.13140
C1101       C  0.67766343  0.04151992  0.56077477    -0.13000
C1102       C  0.65440378  0.00354466  0.56903302     0.09150
C1103       C  0.65455664  0.46457462  0.55454220    -0.13000
C1104       C  0.67732849  0.46377708  0.53207072    -0.13000
C1105       C  0.70095053  0.50159812  0.52406181     0.09150
C1106       C  0.70099373  0.04044402  0.53853224    -0.13000
H1107       H  0.67831806  0.07189517  0.57163217     0.13140
H1108       H  0.63667137  0.43494947  0.56045519     0.13140
H1109       H  0.67715630  0.43348963  0.52110785     0.13140
H1110       H  0.71916883  0.06986300  0.53257383     0.13140
C1111       C  0.84429518  0.03589823  0.55458623    -0.13000
C1112       C  0.84426235  0.99694684  0.56909600     0.09150
C1113       C  0.82103454  0.45898736  0.56081001    -0.13000
C1114       C  0.79787582  0.46006748  0.53851966    -0.13000
C1115       C  0.79807483  0.49890484  0.52403941     0.09150
C1116       C  0.82168497  0.03670273  0.53207017    -0.13000
H1117       H  0.86217879  0.06550565  0.56052404     0.13140
H1118       H  0.82025443  0.42863027  0.57168452     0.13140
H1119       H  0.77968527  0.43067387  0.53254144     0.13140
H1120       H  0.82195265  0.06698325  0.52109760     0.13140
C1121       C  0.53502863  0.17724333  0.56159116    -0.13000
C1122       C  0.99591594  0.15471766  0.56882425     0.09150
C1123       C  0.95834829  0.15542381  0.55324013    -0.13000
C1124       C  0.95981031  0.17837875  0.53089603    -0.13000
C1125       C  0.49854051  0.20154475  0.52396603     0.09150
C1126       C  0.53623198  0.20075759  0.53936938    -0.13000
H1127       H  0.56445059  0.17711948  0.57324526     0.13140
H1128       H  0.92790714  0.13798709  0.55816709     0.13140
H1129       H  0.93046980  0.17873543  0.51917137     0.13140
H1130       H  0.56642058  0.21845305  0.53418434     0.13140
C1131       C  0.96374317  0.32209937  0.56199352    -0.13000
C1132       C  0.00235874  0.34579734  0.56887179     0.09150
C1133       C  0.53943349  0.34628178  0.55294409    -0.13000
C1134       C  0.53800835  0.32329460  0.53061415    -0.13000
C1135       C  0.49983610  0.29889564  0.52403714     0.09150
C1136       C  0.96258985  0.29856548  0.53977826    -0.13000
H1137       H  0.93470451  0.32131677  0.57392312     0.13140
H1138       H  0.56944296  0.36469081  0.55759708     0.13140
H1139       H  0.56697412  0.32389038  0.51861782     0.13140
H1140       H  0.93277599  0.28001712  0.53485479     0.13140
C1141       C  0.57320962  0.24842999  0.22267624    -0.12920
C1142       C  0.54008207  0.24978928  0.23535269    -0.14480
C1143       C  0.95962209  0.25061128  0.23536255    -0.12920
C1144       C  0.92644268  0.25185044  0.22272759    -0.14480
C1145       C  0.79262566  0.06119895  0.03428197    -0.13000
C1146       C  0.75160122  0.04830553  0.02405929     0.09150
C1147       C  0.71159025  0.05868314  0.03633519    -0.13000
C1148       C  0.71261769  0.08185560  0.05867082    -0.13000
C1149       C  0.75373548  0.09477445  0.06905190     0.09150
C1150       C  0.79372961  0.08417342  0.05662171    -0.13000
H1151       H  0.82379139  0.05304271  0.02508316     0.13140
H1152       H  0.67967353  0.04868598  0.02863821     0.13140
H1153       H  0.68129631  0.08962810  0.06780999     0.13140
H1154       H  0.82596444  0.09356056  0.06406240     0.13140
C1155       C  0.78765876  0.44594904  0.03772925    -0.13000
C1156       C  0.74830692  0.45155552  0.02395264     0.09150
C1157       C  0.70804728  0.43348926  0.03258506    -0.13000
C1158       C  0.70694424  0.41045657  0.05491076    -0.13000
C1159       C  0.74621515  0.40491831  0.06890337     0.09150
C1160       C  0.78666101  0.42268195  0.06003590    -0.13000
H1161       H  0.81902139  0.45974212  0.03122348     0.13140
H1162       H  0.67737735  0.43771449  0.02218478     0.13140
H1163       H  0.67530422  0.39693823  0.06109144     0.13140
H1164       H  0.81741947  0.41882153  0.07040108     0.13140
C1165       C  0.79207102  0.06472715  0.96835742    -0.13000
C1166       C  0.75141726  0.04851839  0.97753724     0.09150
C1167       C  0.71175332  0.05592231  0.96430352    -0.13000
C1168       C  0.71279674  0.07919016  0.94200015    -0.13000
C1169       C  0.75357634  0.09528180  0.93262631     0.09150
C1170       C  0.79319174  0.08789032  0.94606923    -0.13000
H1171       H  0.82298608  0.05902764  0.97832398     0.13140
H1172       H  0.68010512  0.04350476  0.97122199     0.13140
H1173       H  0.68177030  0.08445991  0.93206605     0.13140
H1174       H  0.82513004  0.09998605  0.93947326     0.13140
C1175       C  0.70653465  0.44086724  0.96668286    -0.13000
C1176       C  0.74768734  0.45187265  0.97742006     0.09150
C1177       C  0.78768021  0.43971208  0.96563246    -0.13000
C1178       C  0.78651755  0.41668498  0.94325740    -0.13000
C1179       C  0.74528712  0.40555214  0.93238897     0.09150
C1180       C  0.70530373  0.41790118  0.94433769    -0.13000
H1181       H  0.67540157  0.45042583  0.97550896     0.13140
H1182       H  0.81969930  0.44826352  0.97372257     0.13140
H1183       H  0.81783179  0.40754468  0.93449377     0.13140
H1184       H  0.67299373  0.40997802  0.93648277     0.13140
C1185       C  0.99728343  0.21007120  0.73527604    -0.12920
C1186       C  0.99574597  0.17694039  0.72262521    -0.14480
C1187       C  0.00139629  0.29042043  0.73532144    -0.12920
C1188       C  0.00296017  0.32357746  0.72268347    -0.14480
C1189       C  0.53949729  0.24804715  0.76618341    -0.12920
C1190       C  0.57265282  0.24669267  0.77883883    -0.14480
C1191       C  0.92595514  0.25354245  0.77881681    -0.12920
C1192       C  0.95911947  0.25227679  0.76616575    -0.14480
C1193       C  0.78944542  0.99826180  0.73532872    -0.12920
C1194       C  0.82262767  0.99708250  0.72269213    -0.14480
C1195       C  0.67592199  0.00346001  0.72263700    -0.12920
C1196       C  0.70906152  0.00225042  0.73530987    -0.14480
C1197       C  0.75281930  0.07347190  0.77888748    -0.12920
C1198       C  0.75121931  0.04035707  0.76622435    -0.14480
C1199       C  0.74728075  0.45999617  0.76616463    -0.12920
C1200       C  0.74574480  0.42681622  0.77878313    -0.14480
C1201       C  0.54616585  0.28711867  0.04015087    -0.13000
C1202       C  0.54841374  0.25062120  0.02391737     0.09150
C1203       C  0.57503423  0.21345187  0.02996871    -0.13000
C1204       C  0.59815317  0.21214197  0.05226594    -0.13000
C1205       C  0.59566339  0.24838972  0.06868957     0.09150
C1206       C  0.56989482  0.28613526  0.06232710    -0.13000
H1207       H  0.52596473  0.31621124  0.03564802     0.13140
H1208       H  0.57719762  0.18507331  0.01761195     0.13140
H1209       H  0.61821987  0.18286327  0.05653091     0.13140
H1210       H  0.56756243  0.31452682  0.07465863     0.13140
C1211       C  0.95217892  0.21321042  0.03976875    -0.13000
C1212       C  0.95071269  0.25024863  0.02388829     0.09150
C1213       C  0.92518543  0.28792399  0.03035002    -0.13000
C1214       C  0.90231067  0.28914412  0.05271579    -0.13000
C1215       C  0.90395656  0.25231947  0.06879119     0.09150
C1216       C  0.92866614  0.21411228  0.06201118    -0.13000
H1217       H  0.97164333  0.18378901  0.03494884     0.13140
H1218       H  0.92372200  0.31673986  0.01826589     0.13140
H1219       H  0.88309625  0.31882238  0.05729525     0.13140
H1220       H  0.93034549  0.18527852  0.07406527     0.13140
C1221       C  0.54784001  0.21002311  0.96295800    -0.13000
C1222       C  0.54791054  0.24893010  0.97737630     0.09150
C1223       C  0.57135503  0.28678685  0.96928383    -0.13000
C1224       C  0.59395363  0.28598343  0.94677171    -0.13000
C1225       C  0.59412210  0.24695500  0.93233719     0.09150
C1226       C  0.57102656  0.20893350  0.94067452    -0.13000
H1227       H  0.52978412  0.18058407  0.96899365     0.13140
H1228       H  0.57152838  0.31709726  0.98023049     0.13140
H1229       H  0.61171797  0.31563912  0.94079302     0.13140
H1230       H  0.57040471  0.17851332  0.92985432     0.13140
C1231       C  0.92691434  0.21434539  0.96955460    -0.13000
C1232       C  0.95108386  0.25195888  0.97735130     0.09150
C1233       C  0.95168435  0.29054231  0.96266328    -0.13000
C1234       C  0.92837851  0.29152814  0.94040857    -0.13000
C1235       C  0.90460273  0.25372457  0.93236359     0.09150
C1236       C  0.90418678  0.21503389  0.94707198    -0.13000
H1237       H  0.92626400  0.18429328  0.98071065     0.13140
H1238       H  0.97022868  0.31982476  0.96847052     0.13140
H1239       H  0.92943363  0.32168739  0.92937564     0.13140
H1240       H  0.88586501  0.18556634  0.94132875     0.13140
C1241       C  0.82309072  0.00158604  0.27883166    -0.12920
C1242       C  0.78992665  0.00029733  0.26619067    -0.14480
C1243       C  0.70946174  0.00006432  0.26620781    -0.12920
C1244       C  0.67631049  0.99883482  0.27886116    -0.14480
C1245       C  0.75126464  0.07347825  0.22264454    -0.12920
C1246       C  0.74992932  0.04033526  0.23529720    -0.14480
C1247       C  0.74810561  0.42670438  0.22273285    -0.12920
C1248       C  0.74942766  0.45988106  0.23535546    -0.14480
C1249       C  0.74968356  0.00014274  0.25076141    -0.02140
C1250       C  0.97669889  0.75047932  0.00068474     0.00920
C1251       C  0.52235930  0.75051132  0.00070465     0.00910
C1252       C  0.74924364  0.00021822  0.75075952    -0.02140
C1253       C  0.49932210  0.75020961  0.75073474    -0.02140
C1254       C  0.74891250  0.97732206  0.00072460     0.00920
C1255       C  0.75062641  0.52279666  0.00077060     0.00910
C1256       C  0.74399579  0.88072361  0.90889252     0.43170
N1257       N  0.76522332  0.84378418  0.87710169     0.01700
C1258       C  0.63109293  0.70612456  0.80590417    -0.06180
H1259       H  0.63275375  0.67101222  0.90090940     0.07190
C1260       C  0.79405521  0.63741901  0.89637514    -0.06530
Co1261     Co  0.68759213  0.80450336  0.85011733     0.74180
N1262       N  0.65866018  0.72231118  0.87694475    -0.25710
Co1263     Co  0.69516047  0.68856084  0.85019462     0.74070
C1264       C  0.75475884  0.62000143  0.90909310     0.42910
N1265       N  0.84278231  0.73403850  0.87720642     0.01310
N1266       N  0.73344218  0.65663560  0.87720767     0.01420
N1267       N  0.62686113  0.78189850  0.80662712    -0.46550
H1268       H  0.66953371  0.86644006  0.90080051     0.07180
N1269       N  0.65588376  0.76643596  0.87716071     0.01710
N1270       N  0.73315874  0.65610011  0.82345949     0.01450
C1271       C  0.75394205  0.61184383  0.79474789     0.43050
N1272       N  0.84002044  0.77816172  0.87693152    -0.25160
C1273       C  0.70506490  0.86853349  0.80577540    -0.06080
N1274       N  0.78036350  0.86727802  0.89600426    -0.46270
N1275       N  0.71778834  0.62781281  0.80675209    -0.46490
C1276       C  0.74467169  0.88838693  0.79460700     0.42820
N1277       N  0.65523193  0.76654760  0.82337044     0.01690
N1278       N  0.84064322  0.77793173  0.82346592    -0.25180
N1279       N  0.72113337  0.84083722  0.87690952    -0.25680
N1280       N  0.84342898  0.73374136  0.82339203     0.01330
H1281       H  0.87390260  0.82916841  0.80225407     0.07220
H1282       H  0.82862379  0.62513292  0.80227919     0.07260
N1283       N  0.65799695  0.72235466  0.82349435    -0.25730
N1284       N  0.77752218  0.65972099  0.87703520    -0.25340
N1285       N  0.76548361  0.84418173  0.82334776     0.01700
C1286       C  0.61887976  0.74558183  0.90889194     0.43090
C1287       C  0.86277052  0.79449381  0.89614346    -0.06590
N1288       N  0.77735257  0.65871172  0.82351540    -0.25340
H1289       H  0.82917651  0.63437299  0.90096825     0.07240
N1290       N  0.63260001  0.78183084  0.89611940    -0.46560
H1291       H  0.86594609  0.82953798  0.90084603     0.07230
C1292       C  0.88754090  0.75452195  0.79466214     0.42930
C1293       C  0.70464330  0.86337005  0.89618419    -0.06090
Co1294     Co  0.80349235  0.81179740  0.85012836     0.73820
N1295       N  0.86603561  0.71870880  0.89619954    -0.46280
C1296       C  0.61107003  0.74570541  0.79468103     0.43200
N1297       N  0.78083663  0.87245323  0.80662247    -0.46270
Co1298     Co  0.81106361  0.69588947  0.85019099     0.73890
C1299       C  0.79356363  0.63170412  0.80590134    -0.06600
C1300       C  0.63591241  0.70604292  0.89616986    -0.06160
N1301       N  0.72129125  0.84156609  0.82340507    -0.25690
N1302       N  0.71835423  0.63315613  0.89613676    -0.46450
H1303       H  0.62466769  0.67107148  0.80235318     0.07200
C1304       C  0.86750875  0.79412233  0.80584785    -0.06570
Cl1305     Cl  0.74932702  0.75018733  0.85002780    -0.49570
C1306       C  0.87976623  0.75499949  0.90893084     0.42960
H1307       H  0.67000114  0.87510693  0.80216296     0.07170
N1308       N  0.87179017  0.71835221  0.80665531    -0.46280
C1309       C  0.74656101  0.88831627  0.20689995     0.42810
N1310       N  0.76676268  0.84400013  0.17810380     0.01700
C1311       C  0.63764562  0.70709544  0.10469741    -0.06180
H1312       H  0.62433471  0.67213438  0.19905713     0.07190
C1313       C  0.79280185  0.63134374  0.19575777    -0.06530
Co1314     Co  0.68837108  0.80496265  0.15141412     0.74180
N1315       N  0.65815996  0.72308879  0.17789033    -0.25710
Co1316     Co  0.69533777  0.68901721  0.15117496     0.74070
C1317       C  0.75287569  0.61185476  0.20680083     0.42910
N1318       N  0.84371580  0.73295538  0.17820466     0.01310
N1319       N  0.73280184  0.65624444  0.17800548     0.01420
N1320       N  0.63257484  0.78276174  0.10556591    -0.46550
H1321       H  0.67170726  0.87574572  0.19946971     0.07180
N1322       N  0.65587030  0.76730665  0.17810134     0.01710
N1323       N  0.73361003  0.65674593  0.12426674     0.01450
C1324       C  0.75491292  0.61962408  0.09254584     0.43050
N1325       N  0.84139386  0.77717287  0.17802824    -0.25160
C1326       C  0.70563162  0.86327246  0.10525033    -0.06080
N1327       N  0.78249019  0.87207541  0.19481586    -0.46270
N1328       N  0.71850319  0.63328791  0.10533765    -0.46490
C1329       C  0.74499147  0.88041128  0.09249426     0.42820
N1330       N  0.65611323  0.76719936  0.12440680     0.01690
N1331       N  0.84026435  0.77729113  0.12445125    -0.25180
N1332       N  0.72254342  0.84177623  0.17810609    -0.25680
N1333       N  0.84361481  0.73320478  0.12450750     0.01330
H1334       H  0.86518239  0.82841899  0.10009723     0.07220
H1335       H  0.82938854  0.63336576  0.10088736     0.07260
N1336       N  0.65952257  0.72311875  0.12427684    -0.25730
N1337       N  0.77702314  0.65847242  0.17807793    -0.25340
N1338       N  0.76618166  0.84366080  0.12436393     0.01700
C1339       C  0.61154184  0.74692105  0.20678436     0.43090
C1340       C  0.86844768  0.79311820  0.19563825    -0.06590
N1341       N  0.77771449  0.65937531  0.12457880    -0.25340
H1342       H  0.82776384  0.62445492  0.19949184     0.07240
N1343       N  0.62772804  0.78293812  0.19486919    -0.46560
H1344       H  0.87520322  0.82810159  0.19920799     0.07230
C1345       C  0.87984179  0.75388235  0.09245299     0.42930
C1346       C  0.70668583  0.86886175  0.19578188    -0.06090
Co1347     Co  0.80433567  0.81131798  0.15130786     0.73820
N1348       N  0.87188591  0.71730836  0.19495818    -0.46280
C1349       C  0.61995464  0.74669315  0.09229717     0.43200
N1350       N  0.78135786  0.86705623  0.10542151    -0.46270
Co1351     Co  0.81130476  0.69533693  0.15145609     0.73890
C1352       C  0.79424453  0.63673994  0.10535925    -0.06600
C1353       C  0.63108688  0.70712163  0.19549205    -0.06160
N1354       N  0.72208305  0.84089076  0.12457769    -0.25690
N1355       N  0.71699894  0.62812254  0.19467678    -0.46450
H1356       H  0.63471270  0.67212821  0.09978695     0.07200
C1357       C  0.86222340  0.79341852  0.10493205    -0.06570
Cl1358     Cl  0.74983956  0.75015453  0.15154131    -0.49570
C1359       C  0.88803208  0.75331426  0.20689880     0.42960
H1360       H  0.67051508  0.86658214  0.10069698     0.07170
N1361       N  0.86713048  0.71773401  0.10563927    -0.46280
C1362       C  0.63754323  0.50444279  0.70677070     0.42810
N1363       N  0.59341105  0.98370853  0.67803633     0.01700
C1364       C  0.95495788  0.61276766  0.60493180    -0.06180
H1365       H  0.92002624  0.62534502  0.69916934     0.07190
C1366       C  0.88110024  0.95647833  0.69571869    -0.06530
Co1367     Co  0.55352449  0.56183550  0.65134370     0.74180
N1368       N  0.97133926  0.59172908  0.67798507    -0.25710
Co1369     Co  0.93761372  0.55459931  0.65130190     0.74070
C1370       C  0.86108009  0.49610127  0.70687323     0.42910
N1371       N  0.98306608  0.90625658  0.67815450     0.01310
N1372       N  0.90519647  0.51681748  0.67812926     0.01420
N1373       N  0.53063760  0.61742395  0.60553587    -0.46550
H1374       H  0.62391210  0.57909983  0.69920831     0.07180
N1375       N  0.51553673  0.59426868  0.67809447     0.01710
N1376       N  0.90583774  0.51647771  0.62433187     0.01450
C1377       C  0.86890523  0.49559103  0.59258550     0.43050
N1378       N  0.52726443  0.90878205  0.67799274    -0.25160
C1379       C  0.61270188  0.54442485  0.60528038    -0.06080
N1380       N  0.62177580  0.96828867  0.69476755    -0.46270
N1381       N  0.88267527  0.53184994  0.60532106    -0.46490
C1382       C  0.62958729  0.50489567  0.59247495     0.42820
N1383       N  0.51535425  0.59391091  0.62439700     0.01690
N1384       N  0.52713868  0.90983309  0.62441016    -0.25180
N1385       N  0.59063911  0.52790006  0.67798558    -0.25680
N1386       N  0.98306295  0.90654195  0.62446048     0.01330
H1387       H  0.57840775  0.88474663  0.60006549     0.07220
H1388       H  0.88254093  0.92102251  0.60069653     0.07260
N1389       N  0.97127618  0.59067209  0.62441175    -0.25730
N1390       N  0.90796632  0.97262600  0.67809248    -0.25340
N1391       N  0.59261655  0.98401052  0.62422603     0.01700
C1392       C  0.99468812  0.63854614  0.70678312     0.43090
C1393       C  0.54356048  0.88176885  0.69558432    -0.06590
N1394       N  0.90848302  0.97234937  0.62462971    -0.25340
H1395       H  0.87467742  0.92144117  0.69932344     0.07240
N1396       N  0.53087634  0.62254364  0.69481802    -0.46560
H1397       H  0.57863706  0.87514935  0.69913348     0.07230
C1398       C  0.00392003  0.87016996  0.59244961     0.42930
C1399       C  0.61751225  0.54405998  0.69560415    -0.06090
Co1400     Co  0.56090679  0.94590672  0.65125193     0.73820
N1401       N  0.96777543  0.87799806  0.69490386    -0.46280
C1402       C  0.99439112  0.63030717  0.59240328     0.43200
N1403       N  0.61580655  0.96863940  0.60522351    -0.46270
Co1404     Co  0.94499329  0.93866198  0.65143264     0.73890
C1405       C  0.88575306  0.95606054  0.60540090    -0.06600
C1406       C  0.95509300  0.61873982  0.69558435    -0.06160
N1407       N  0.58996655  0.52813860  0.62451319    -0.25690
N1408       N  0.87683149  0.53224697  0.69485457    -0.46450
H1409       H  0.91991269  0.61582439  0.60015078     0.07200
C1410       C  0.54338637  0.88777364  0.60490580    -0.06570
Cl1411     Cl  0.99926446  0.50025038  0.65146547    -0.49570
C1412       C  0.00399536  0.86198262  0.70683654     0.42960
H1413       H  0.61593912  0.57946506  0.60058048     0.07170
N1414       N  0.96771447  0.88299082  0.60563038    -0.46280
C1415       C  0.99683889  0.86203391  0.29471075     0.42810
N1416       N  0.51709897  0.90635444  0.32342342     0.01700
C1417       C  0.88576142  0.54420871  0.39613575    -0.06180
H1418       H  0.87385782  0.57806844  0.30209161     0.07190
C1419       C  0.54244638  0.61887951  0.30595174    -0.06530
Co1420     Co  0.93867273  0.94563596  0.35028362     0.74180
N1421       N  0.90795482  0.52733349  0.32346514    -0.25710
Co1422     Co  0.94466730  0.56157992  0.35013727     0.74070
C1423       C  0.00262252  0.63845770  0.29471049     0.42910
N1424       N  0.59353064  0.51734867  0.32349027     0.01310
N1425       N  0.98228555  0.59412529  0.32340611     0.01420
N1426       N  0.88305827  0.96844220  0.39623429    -0.46550
H1427       H  0.92200198  0.87478119  0.30235768     0.07180
N1428       N  0.90584565  0.98312179  0.32348027     0.01710
N1429       N  0.98246177  0.59387478  0.37712867     0.01450
C1430       C  0.00318580  0.63056477  0.40903856     0.43050
N1431       N  0.59141284  0.97313728  0.32348383    -0.25160
C1432       C  0.95658569  0.88761377  0.39655115    -0.06080
N1433       N  0.53281110  0.87821788  0.30667565    -0.46270
N1434       N  0.96700240  0.61743095  0.39598347    -0.46490
C1435       C  0.99611401  0.87012114  0.40910748     0.42820
N1436       N  0.90631864  0.98371726  0.37726627     0.01690
N1437       N  0.59067309  0.97265706  0.37695360    -0.25180
N1438       N  0.97286975  0.90863832  0.32356778    -0.25680
N1439       N  0.59298796  0.51677804  0.37726349     0.01330
H1440       H  0.61701793  0.92120466  0.40073342     0.07220
H1441       H  0.57779302  0.61627153  0.40114380     0.07260
N1442       N  0.90863639  0.52783771  0.37694850    -0.25730
N1443       N  0.52651323  0.59181747  0.32355883    -0.25340
N1444       N  0.51687027  0.90659855  0.37714074     0.01700
C1445       C  0.86147650  0.50320154  0.29467694     0.43090
C1446       C  0.61855900  0.95734098  0.30582077    -0.06590
N1447       N  0.52657148  0.59079068  0.37708998    -0.25340
H1448       H  0.57743492  0.62566006  0.30238211     0.07240
N1449       N  0.87780191  0.96732214  0.30676824    -0.46560
H1450       H  0.62552982  0.92238629  0.30213949     0.07230
C1451       C  0.63028545  0.49574277  0.40895812     0.42930
C1452       C  0.95698079  0.88157286  0.30594829    -0.06090
Co1453     Co  0.55467960  0.93889846  0.35015083     0.73820
N1454       N  0.62160340  0.53313509  0.30678585    -0.46280
C1455       C  0.86899836  0.50475948  0.40895809     0.43200
N1456       N  0.53231621  0.88307576  0.39601637    -0.46270
Co1457     Co  0.56067636  0.55485265  0.35027715     0.73890
C1458       C  0.54273776  0.61309365  0.39647092    -0.06600
C1459       C  0.88082897  0.54311664  0.30578612    -0.06160
N1460       N  0.97276351  0.90976193  0.37711898    -0.25690
N1461       N  0.96661540  0.62229719  0.30665961    -0.46450
H1462       H  0.88227212  0.57929291  0.40071893     0.07200
C1463       C  0.61353046  0.95628873  0.39614559    -0.06570
Cl1464     Cl  0.99967761  0.50024212  0.35008632    -0.49570
C1465       C  0.63794567  0.49724511  0.29471084     0.42960
H1466       H  0.92154100  0.88449086  0.40126579     0.07170
N1467       N  0.61622987  0.53206082  0.39623025    -0.46280
C1468       C  0.49963624  0.77304751  0.50079561     0.00920
C1469       C  0.49888406  0.72747304  0.50076948     0.00910
C1470       C  0.77231090  0.00039760  0.50079402     0.00920
C1471       C  0.72672113  0.00016891  0.50080979     0.00910
C1472       C  0.49985410  0.75024443  0.25079588    -0.02140
C1473       C  0.99838442  0.82365794  0.27885857    -0.12920
C1474       C  0.99963286  0.79049560  0.26621376    -0.14480
C1475       C  0.00116836  0.67687196  0.27888798    -0.12920
C1476       C  0.00003718  0.71004436  0.26624929    -0.14480
C1477       C  0.96157255  0.67501876  0.44079706    -0.13000
C1478       C  0.00166097  0.65514177  0.43259430     0.09150
C1479       C  0.54034361  0.65862263  0.44721743    -0.13000
C1480       C  0.53899827  0.68154091  0.46955794    -0.13000
C1481       C  0.49919215  0.70183377  0.47750073     0.09150
C1482       C  0.96042701  0.69848449  0.46305559    -0.13000
H1483       H  0.93128147  0.67276870  0.42991046     0.13140
H1484       H  0.57165233  0.64340736  0.44156411     0.13140
H1485       H  0.56917685  0.68400324  0.48053826     0.13140
H1486       H  0.92945211  0.71409296  0.46902072     0.13140
C1487       C  0.95962477  0.84473158  0.44800280    -0.13000
C1488       C  0.99756472  0.84570482  0.43269616     0.09150
C1489       C  0.53679349  0.82338062  0.44020632    -0.13000
C1490       C  0.53773877  0.79983211  0.46243896    -0.13000
C1491       C  0.49964605  0.79879281  0.47753892     0.09150
C1492       C  0.96079712  0.82169804  0.47031507    -0.13000
H1493       H  0.92906967  0.86201080  0.44288903     0.13140
H1494       H  0.56649777  0.82371305  0.42877272     0.13140
H1495       H  0.56803813  0.78235593  0.46787439     0.13140
H1496       H  0.93117593  0.82117051  0.48182359     0.13140
C1497       C  0.67400870  0.95762024  0.44221016    -0.13000
C1498       C  0.65510400  0.49699522  0.43243173     0.09150
C1499       C  0.65955574  0.53738858  0.44546591    -0.13000
C1500       C  0.68223128  0.53826211  0.46795626    -0.13000
C1501       C  0.70119664  0.99892407  0.47751946     0.09150
C1502       C  0.69706825  0.95864943  0.46453292    -0.13000
H1503       H  0.67139792  0.92605027  0.43255568     0.13140
H1504       H  0.64519484  0.56817585  0.43838499     0.13140
H1505       H  0.68547192  0.56964827  0.47777999     0.13140
H1506       H  0.71182298  0.92809830  0.47168801     0.13140
C1507       C  0.83976616  0.96317399  0.44552373    -0.13000
C1508       C  0.84410765  0.50351711  0.43242231     0.09150
C1509       C  0.82499770  0.54285951  0.44212464    -0.13000
C1510       C  0.80186628  0.54184655  0.46443193    -0.13000
C1511       C  0.79784615  0.00162260  0.47748839     0.09150
C1512       C  0.81702461  0.96231987  0.46800063    -0.13000
H1513       H  0.85428169  0.93241248  0.43850836     0.13140
H1514       H  0.82751472  0.57439231  0.43242048     0.13140
H1515       H  0.78698085  0.57237840  0.47152551     0.13140
H1516       H  0.81390177  0.93097034  0.47787557     0.13140
C1517       C  0.67767233  0.54151937  0.56077495    -0.13000
C1518       C  0.65441234  0.50354422  0.56903308     0.09150
C1519       C  0.65454819  0.96457493  0.55454227    -0.13000
C1520       C  0.67731993  0.96377732  0.53207079    -0.13000
C1521       C  0.70094173  0.00159843  0.52406178     0.09150
C1522       C  0.70100273  0.54044354  0.53853243    -0.13000
H1523       H  0.67832710  0.57189452  0.57163243     0.13140
H1524       H  0.63666313  0.93494972  0.56045537     0.13140
H1525       H  0.67714787  0.93348978  0.52110799     0.13140
H1526       H  0.71917806  0.56986245  0.53257414     0.13140
C1527       C  0.84430351  0.53589797  0.55458648    -0.13000
C1528       C  0.84427090  0.49694637  0.56909607     0.09150
C1529       C  0.82102552  0.95898797  0.56081013    -0.13000
C1530       C  0.79786667  0.96006797  0.53851979    -0.13000
C1531       C  0.79806602  0.99890508  0.52403931     0.09150
C1532       C  0.82169340  0.53670259  0.53207042    -0.13000
H1533       H  0.86218680  0.56550548  0.56052446     0.13140
H1534       H  0.82024518  0.92863104  0.57168477     0.13140
H1535       H  0.77967581  0.93067445  0.53254174     0.13140
H1536       H  0.82196085  0.56698327  0.52109798     0.13140
C1537       C  0.53503459  0.67724427  0.56159103    -0.13000
C1538       C  0.99592250  0.65471747  0.56882428     0.09150
C1539       C  0.95835453  0.65542277  0.55324038    -0.13000
C1540       C  0.95981551  0.67837781  0.53089632    -0.13000
C1541       C  0.49854502  0.70154480  0.52396612     0.09150
C1542       C  0.53623683  0.70075870  0.53936925    -0.13000
H1543       H  0.56445675  0.67712116  0.57324498     0.13140
H1544       H  0.92791390  0.63798530  0.55816748     0.13140
H1545       H  0.93047474  0.67873376  0.51917184     0.13140
H1546       H  0.56642479  0.71845505  0.53418402     0.13140
C1547       C  0.96373810  0.82209800  0.56199332    -0.13000
C1548       C  0.00235250  0.84579788  0.56887158     0.09150
C1549       C  0.53942711  0.84628401  0.55294395    -0.13000
C1550       C  0.53800321  0.82329666  0.53061407    -0.13000
C1551       C  0.49983226  0.79889574  0.52403706     0.09150
C1552       C  0.96258605  0.79856382  0.53977809    -0.13000
H1553       H  0.93469949  0.82131404  0.57392293     0.13140
H1554       H  0.56943566  0.86469456  0.55759693     0.13140
H1555       H  0.56696900  0.82389384  0.51861777     0.13140
H1556       H  0.93277317  0.78001387  0.53485463     0.13140
C1557       C  0.57321030  0.74843055  0.22267627    -0.12920
C1558       C  0.54008271  0.74979051  0.23535269    -0.14480
C1559       C  0.95962273  0.75060963  0.23536274    -0.12920
C1560       C  0.92644335  0.75184932  0.22272776    -0.14480
C1561       C  0.79262707  0.56119954  0.03428176    -0.13000
C1562       C  0.75160261  0.54830573  0.02405925     0.09150
C1563       C  0.71159172  0.55868294  0.03633532    -0.13000
C1564       C  0.71261923  0.58185539  0.05867093    -0.13000
C1565       C  0.75373703  0.59477468  0.06905184     0.09150
C1566       C  0.79373110  0.58417404  0.05662150    -0.13000
H1567       H  0.82379276  0.55304358  0.02508284     0.13140
H1568       H  0.67967499  0.54868548  0.02863847     0.13140
H1569       H  0.68129790  0.58962757  0.06781024     0.13140
H1570       H  0.82596594  0.59356152  0.06406206     0.13140
C1571       C  0.78765821  0.94594923  0.03772939    -0.13000
C1572       C  0.74830630  0.95155530  0.02395278     0.09150
C1573       C  0.70804682  0.93348877  0.03258525    -0.13000
C1574       C  0.70694400  0.91045624  0.05491100    -0.13000
C1575       C  0.74621496  0.90491842  0.06890362     0.09150
C1576       C  0.78666067  0.92268231  0.06003610    -0.13000
H1577       H  0.81902073  0.95974249  0.03122357     0.13140
H1578       H  0.67737685  0.93771367  0.02218497     0.13140
H1579       H  0.67530409  0.89693771  0.06109171     0.13140
H1580       H  0.81741916  0.91882222  0.07040129     0.13140
C1581       C  0.79207184  0.56472802  0.96835740    -0.13000
C1582       C  0.75141827  0.54851878  0.97753720     0.09150
C1583       C  0.71175424  0.55592232  0.96430349    -0.13000
C1584       C  0.71279741  0.57919021  0.94200013    -0.13000
C1585       C  0.75357684  0.59528228  0.93262629     0.09150
C1586       C  0.79319231  0.58789124  0.94606922    -0.13000
H1587       H  0.82298697  0.55902882  0.97832395     0.13140
H1588       H  0.68010617  0.54350444  0.97122195     0.13140
H1589       H  0.68177091  0.58445964  0.93206602     0.13140
H1590       H  0.82513048  0.59998731  0.93947327     0.13140
C1591       C  0.70653375  0.94086706  0.96668295    -0.13000
C1592       C  0.74768645  0.95187227  0.97742021     0.09150
C1593       C  0.78767932  0.93971149  0.96563266    -0.13000
C1594       C  0.78651665  0.91668445  0.94325758    -0.13000
C1595       C  0.74528622  0.90555186  0.93238908     0.09150
C1596       C  0.70530282  0.91790103  0.94433776    -0.13000
H1597       H  0.67540068  0.95042581  0.97550900     0.13140
H1598       H  0.81969841  0.94826276  0.97372282     0.13140
H1599       H  0.81783088  0.90754403  0.93449399     0.13140
H1600       H  0.67299283  0.90997807  0.93648278     0.13140
C1601       C  0.99728522  0.71007122  0.73527587    -0.12920
C1602       C  0.99575068  0.67694025  0.72262505    -0.14480
C1603       C  0.00139365  0.79042064  0.73532123    -0.12920
C1604       C  0.00295504  0.82357775  0.72268324    -0.14480
C1605       C  0.53949671  0.74804879  0.76618340    -0.12920
C1606       C  0.57265220  0.74669385  0.77883884    -0.14480
C1607       C  0.92595426  0.75354173  0.77881648    -0.12920
C1608       C  0.95911862  0.75227553  0.76616545    -0.14480
C1609       C  0.78945377  0.49826173  0.73532949    -0.12920
C1610       C  0.82263615  0.49708249  0.72269294    -0.14480
C1611       C  0.67593048  0.50345960  0.72263640    -0.12920
C1612       C  0.70906985  0.50225001  0.73530933    -0.14480
C1613       C  0.75282273  0.57347176  0.77888765    -0.12920
C1614       C  0.75122497  0.54035678  0.76622453    -0.14480
C1615       C  0.74727465  0.95999649  0.76616459    -0.12920
C1616       C  0.74574054  0.92681652  0.77878314    -0.14480
C1617       C  0.54616205  0.78711641  0.04015243    -0.13000
C1618       C  0.54841381  0.75062122  0.02391749     0.09150
C1619       C  0.57503889  0.71345427  0.02996732    -0.13000
C1620       C  0.59815815  0.71214415  0.05226448    -0.13000
C1621       C  0.59566420  0.74838944  0.06868953     0.09150
C1622       C  0.56989129  0.78613285  0.06232857    -0.13000
H1623       H  0.52595773  0.81620737  0.03565076     0.13140
H1624       H  0.57720560  0.68507754  0.01760947     0.13140
H1625       H  0.61822837  0.68286728  0.05652834     0.13140
H1626       H  0.56755570  0.81452252  0.07466123     0.13140
C1627       C  0.95217921  0.71321167  0.03976886    -0.13000
C1628       C  0.95071240  0.75024949  0.02388814     0.09150
C1629       C  0.92518464  0.78792466  0.03034965    -0.13000
C1630       C  0.90231012  0.78914507  0.05271550    -0.13000
C1631       C  0.90395674  0.75232086  0.06879117     0.09150
C1632       C  0.92866668  0.71411380  0.06201135    -0.13000
H1633       H  0.97164399  0.68379040  0.03494913     0.13140
H1634       H  0.92372075  0.81674023  0.01826532     0.13140
H1635       H  0.88309537  0.81882318  0.05729484     0.13140
H1636       H  0.93034655  0.68528035  0.07406564     0.13140
C1637       C  0.54784101  0.71002220  0.96295859    -0.13000
C1638       C  0.54791037  0.74892986  0.97737636     0.09150
C1639       C  0.57135352  0.78678702  0.96928333    -0.13000
C1640       C  0.59395204  0.78598331  0.94677120    -0.13000
C1641       C  0.59412176  0.74695422  0.93233721     0.09150
C1642       C  0.57102750  0.70893233  0.94067509    -0.13000
H1643       H  0.52978608  0.68058287  0.96899467     0.13140
H1644       H  0.57152589  0.81709794  0.98022957     0.13140
H1645       H  0.61171532  0.81563934  0.94079209     0.13140
H1646       H  0.57040660  0.67851163  0.92985531     0.13140
C1647       C  0.92691447  0.71434631  0.96955433    -0.13000
C1648       C  0.95108395  0.75195976  0.97735113     0.09150
C1649       C  0.95168436  0.79054331  0.96266320    -0.13000
C1650       C  0.92837841  0.79152932  0.94040849    -0.13000
C1651       C  0.90460263  0.75372579  0.93236345     0.09150
C1652       C  0.90418683  0.71503498  0.94707174    -0.13000
H1653       H  0.92626417  0.68429412  0.98071032     0.13140
H1654       H  0.97022866  0.81982574  0.96847050     0.13140
H1655       H  0.92943342  0.82168867  0.92937564     0.13140
H1656       H  0.88586509  0.68556744  0.94132847     0.13140
C1657       C  0.82310017  0.50158575  0.27883107    -0.12920
C1658       C  0.78993610  0.50029700  0.26619000    -0.14480
C1659       C  0.70947118  0.50006418  0.26620840    -0.12920
C1660       C  0.67631997  0.49883464  0.27886172    -0.14480
C1661       C  0.75126953  0.57347812  0.22264445    -0.12920
C1662       C  0.74993636  0.54033509  0.23529716    -0.14480
C1663       C  0.74810141  0.92670435  0.22273302    -0.12920
C1664       C  0.74942091  0.95988121  0.23535556    -0.14480
loop_ 
_geom_bond_atom_site_label_1 
_geom_bond_atom_site_label_2 
_geom_bond_distance 
_geom_bond_site_symmetry_2 
_ccdc_geom_bond_type 
C1          C416   1.465       .  S
C1          C826   1.465       .  S
C1          C827   1.465       .  S
C1          C830   1.465       .  S
C2          C380   1.482       .  S
C2          C400   1.483   1_554  S
C2          C835   1.362       .  D
C3          C370   1.483       .  S
C3          C390   1.482   1_554  S
C3          C834   1.362   1_455  D
C4          C367   1.465       .  S
C4          C777   1.465       .  S
C4          C780   1.465       .  S
C4          C782   1.465       .  S
C5          C357   1.465   1_655  S
C5         C1185   1.465       .  S
C5         C1187   1.466   1_655  S
C5         C1192   1.465       .  S
C6          C324   1.480       .  S
C6          C344   1.479   1_554  S
C6          C423   1.358       .  D
C7          C314   1.479       .  S
C7          C334   1.480   1_554  S
C7          C422   1.358   1_545  D
C8           N26   1.352       .  A
C8           C45   1.459       .  S
C8          C347   1.479       .  S
N9           N26   1.325       .  A
N9           N31   1.319       .  A
N9          Co46   2.089       .  S
C10          N35   1.341       .  A
C10          C48   1.456       .  S
C10          H55   1.082       .  S
H11          C52   1.081       .  S
C12          N36   1.339       .  A
C12          C16   1.459       .  S
C12          H41   1.081       .  S
Co13         N31   2.077       .  S
Co13         N21   2.088       .  S
Co13         N53   2.087       .  S
Co13         N29   2.084       .  S
Co13        Cl57   2.449       .  S
N14          C52   1.339       .  A
N14          N21   1.319       .  A
N14         Co15   2.077       .  S
Co15         N18   2.089       .  S
Co15         N35   2.086       .  S
Co15         N22   2.082       .  S
Co15        Cl57   2.453       .  S
C16          N54   1.352       .  A
C16         C337   1.479       .  S
N17          N24   1.319       .  A
N17          N47   1.325       .  A
N17         Co50   2.089       .  S
N18          N36   1.319       .  A
N18          N54   1.326       .  A
N19          C48   1.347       .  A
N19          N29   1.324       .  A
H20          C45   1.081       .  S
N21          N42   1.325       .  A
N22          N40   1.321       .  A
N22          N27   1.324       .  A
C23          N27   1.347       .  A
C23          C51   1.457       .  S
C23         C365   1.435       .  S
N24          C39   1.340       .  A
N24         Co46   2.077       .  S
C25          N53   1.342       .  A
C25          C28   1.457       .  S
C25          H59   1.082       .  S
C28          N49   1.347       .  A
C28         C368   1.435       .  S
N29          N35   1.321       .  A
N30          C56   1.341       .  A
N30          N32   1.321       .  A
N30         Co46   2.085       .  S
N31          C45   1.339       .  A
N32          N60   1.324       .  A
N32         Co50   2.084       .  S
H33          C56   1.082       .  S
H34          C51   1.082       .  S
N36         Co50   2.076       .  S
N37          N49   1.324       .  A
N37          N53   1.321       .  A
N37         Co46   2.082       .  S
C38          N42   1.351       .  A
C38          C52   1.458       .  S
C38         C393   1.475       .  S
C39          C58   1.458       .  S
C39          H43   1.081       .  S
N40          C51   1.342       .  A
N40         Co50   2.088       .  S
C44          N60   1.347       .  A
C44          C56   1.456       .  S
C44         C359   1.434       .  S
Co46        Cl57   2.452       .  S
N47          C58   1.351       .  A
C48         C358   1.434       .  S
Co50        Cl57   2.448       .  S
C58         C403   1.475       .  S
C61          N79   1.346       .  A
C61          C98   1.457       .  S
C61         C415   1.434       .  S
N62          N79   1.324       .  A
N62          N84   1.321       .  A
N62         Co99   2.080       .  S
C63          N88   1.339       .  A
C63         C101   1.458       .  S
C63         H108   1.081       .  S
H64         C105   1.082       .  S
C65          N89   1.342       .  A
C65          C69   1.457       .  S
C65          H94   1.082       .  S
Co66         N84   2.089       .  S
Co66         N74   2.079       .  S
Co66        N106   2.074       .  S
Co66         N82   2.089       .  S
Co66       Cl110   2.452       .  S
N67         C105   1.342       .  A
N67          N74   1.321       .  A
N67         Co68   2.091       .  S
Co68         N71   2.081       .  S
Co68         N88   2.077       .  S
Co68         N75   2.090       .  S
Co68       Cl110   2.448       .  S
C69         N107   1.346       .  A
C69         C413   1.434       .  S
N70          N77   1.321       .  A
N70         N100   1.324       .  A
N70        Co103   2.079       .  S
N71          N89   1.321       .  A
N71         N107   1.324       .  A
N72         C101   1.351       .  A
N72          N82   1.326       .  A
H73          C98   1.082       .  S
N74          N95   1.324       .  A
N75          N93   1.318       .  A
N75          N80   1.326       .  A
C76          N80   1.352       .  A
C76         C104   1.459       .  S
C76         C317   1.479       .  S
N77          C92   1.341       .  A
N77         Co99   2.090       .  S
C78         N106   1.338       .  A
C78          C81   1.458       .  S
C78         H112   1.081       .  S
C81         N102   1.352       .  A
C81         C327   1.478       .  S
N82          N88   1.319       .  A
N83         C109   1.339       .  A
N83          N85   1.319       .  A
N83         Co99   2.076       .  S
N84          C98   1.342       .  A
N85         N113   1.326       .  A
N85        Co103   2.089       .  S
H86         C109   1.081       .  S
H87         C104   1.081       .  S
N89        Co103   2.089       .  S
N90         N102   1.326       .  A
N90         N106   1.318       .  A
N90         Co99   2.090       .  S
C91          N95   1.346       .  A
C91         C105   1.457       .  S
C91         C309   1.434       .  S
C92         C111   1.457       .  S
C92          H96   1.082       .  S
N93         C104   1.338       .  A
N93        Co103   2.075       .  S
C97         N113   1.351       .  A
C97         C109   1.458       .  S
C97         C383   1.476       .  S
Co99       Cl110   2.449       .  S
N100        C111   1.346       .  A
C101        C373   1.476       .  S
Co103      Cl110   2.453       .  S
C111        C312   1.434       .  S
C114        N548   1.348   1_545  A
C114        C151   1.456       .  S
C114        C363   1.435       .  S
N115        N132   1.324       .  A
N115        N553   1.321       .  A
N115       Co152   2.085       .  S
C116        N141   1.339       .  A
C116        C154   1.459       .  S
C116        H161   1.081       .  S
H117        C158   1.082       .  S
C118        N142   1.341       .  A
C118        C538   1.455       .  S
C118        H147   1.082       .  S
Co119       N137   2.085       .  S
Co119       N127   2.082       .  S
Co119       N159   2.078       .  S
Co119       N135   2.087       .  S
Co119      Cl995   2.453   1_455  S
N120        C158   1.341       .  A
N120        N959   1.321       .  A
N120       Co121   2.088       .  S
Co121       N124   2.085       .  S
Co121       N141   2.078       .  S
Co121       N128   2.087       .  S
Co121      Cl163   2.447       .  S
C122        N160   1.347   1_565  A
C122        C534   1.455       .  S
C122        C362   1.434       .  S
N123        N153   1.324       .  A
N123        N962   1.321       .  A
N123       Co156   2.081       .  S
N124        N160   1.324       .  A
N124        N558   1.321   1_545  A
N125        C986   1.351   1_455  A
N125        N135   1.325       .  A
H126        C151   1.082       .  S
N127        N148   1.324       .  A
N127        N952   1.321   1_455  A
N128        N133   1.325       .  A
N128        N562   1.319   1_545  A
C129        N133   1.350   1_565  A
C129        C280   1.475       .  S
C129        C573   1.458       .  S
N130        C145   1.342       .  A
N130        N955   1.321   1_455  A
N130       Co152   2.088       .  S
C131        N159   1.340       .  A
C131        C134   1.458       .  S
C131        H165   1.081       .  S
N132        C530   1.348       .  A
C134        N571   1.351   1_545  A
C134        C270   1.476       .  S
N135        N973   1.319   1_455  A
N136        C162   1.339       .  A
N136        N970   1.319   1_455  A
N136       Co152   2.078       .  S
N137        C151   1.341       .  A
N137        N531   1.321   1_545  A
N138        N166   1.325       .  A
N138        N968   1.319       .  A
N138       Co156   2.087       .  S
H139        C162   1.081       .  S
H140        C157   1.081       .  S
N141        N967   1.319       .  A
N142        N540   1.321       .  A
N142       Co156   2.085       .  S
N143        N155   1.325       .  A
N143        N575   1.319       .  A
N143       Co152   2.088       .  S
C144        N980   1.347       .  A
C144        C158   1.457       .  S
C144        C354   1.434       .  S
C145        C996   1.457       .  S
C145        H149   1.082       .  S
N146        C157   1.339       .  A
N146        N544   1.319       .  A
N146       Co156   2.078       .  S
N148        C976   1.347   1_455  A
C150        N166   1.351       .  A
C150        C300   1.476       .  S
C150        C994   1.458       .  S
Co152     Cl1411   2.447   1_455  S
N153        C164   1.347       .  A
C154        N957   1.351       .  A
C154        C290   1.476       .  S
N155        C550   1.351       .  A
Co156      Cl579   2.454       .  S
C157        C545   1.458       .  S
N159        N559   1.319   1_545  A
C162        C982   1.458       .  S
Cl163      Co951   2.453       .  S
Cl163     Co1400   2.447   1_545  S
Cl163      Co572   2.454   1_545  S
C164        C977   1.457       .  S
C164        C356   1.435       .  S
C167       N1017   1.346       .  A
C167        C204   1.457       .  S
C167        C225   1.435       .  S
N168        N185   1.324       .  A
N168       N1022   1.321   1_455  A
N168       Co205   2.080       .  S
C169        N194   1.339       .  A
C169        C207   1.458       .  S
C169        H214   1.081       .  S
H170        C211   1.082       .  S
C171        N195   1.341       .  A
C171       C1007   1.457       .  S
C171        H200   1.082       .  S
Co172       N190   2.090       .  S
Co172       N180   2.081       .  S
Co172       N212   2.075       .  S
Co172       N188   2.091       .  S
Co172      Cl632   2.447       .  S
N173        C211   1.342       .  A
N173        N596   1.321   1_545  A
N173       Co174   2.088       .  S
Co174       N177   2.080       .  S
Co174       N194   2.075       .  S
Co174       N181   2.090       .  S
Co174      Cl216   2.454       .  S
C175        N213   1.347       .  A
C175       C1003   1.457       .  S
C175        C227   1.434       .  S
N176        N206   1.324       .  A
N176        N599   1.321   1_545  A
N176       Co209   2.081       .  S
N177        N213   1.324       .  A
N177       N1027   1.321       .  A
N178        C623   1.352       .  A
N178        N188   1.326       .  A
H179        C204   1.082       .  S
N180        N201   1.324       .  A
N180        N589   1.321       .  A
N181        N186   1.326       .  A
N181       N1031   1.319       .  A
C182        N186   1.352       .  A
C182        C230   1.478       .  S
C182       C1042   1.459       .  S
N183        C198   1.342       .  A
N183        N592   1.321       .  A
N183       Co205   2.088       .  S
C184        N212   1.338       .  A
C184        C187   1.458       .  S
C184        H218   1.081       .  S
N185        C999   1.346   1_455  A
C187       N1040   1.352       .  A
C187        C240   1.477       .  S
N188        N610   1.319       .  A
N189        C215   1.339       .  A
N189        N607   1.319       .  A
N189       Co205   2.075       .  S
N190        C204   1.342       .  A
N190       N1000   1.321       .  A
N191        N219   1.326       .  A
N191        N605   1.319   1_545  A
N191       Co209   2.090       .  S
H192        C215   1.081       .  S
H193        C210   1.081       .  S
N194        N604   1.319   1_545  A
N195       N1009   1.321   1_455  A
N195       Co209   2.088       .  S
N196        N208   1.326       .  A
N196       N1044   1.319   1_455  A
N196       Co205   2.090       .  S
C197        N617   1.346   1_545  A
C197        C211   1.457       .  S
C197        C409   1.434       .  S
C198        C633   1.457       .  S
C198        H202   1.082       .  S
N199        C210   1.338       .  A
N199       N1013   1.319   1_455  A
N199       Co209   2.075       .  S
N201        C613   1.346       .  A
C203        N219   1.352   1_565  A
C203        C250   1.477       .  S
C203        C631   1.458       .  S
Co205     Cl1464   2.454   1_455  S
N206        C217   1.346   1_545  A
C207        N594   1.352   1_545  A
C207        C260   1.478       .  S
N208       C1019   1.352   1_455  A
Co209     Cl1048   2.447   1_455  S
C210       C1014   1.459       .  S
N212       N1028   1.319       .  A
C215        C619   1.458       .  S
Cl216      Co588   2.447   1_545  S
Cl216     Co1453   2.454   1_545  S
Cl216     Co1041   2.447       .  S
C217        C614   1.457       .  S
C217        C412   1.434       .  S
C220        C243   1.481       .  S
C220        C303   1.482       .  S
C220        C221   1.360       .  D
C221        C233   1.480       .  S
C221        C293   1.481       .  S
C222        C263   1.480       .  S
C222        C283   1.481       .  S
C222        C223   1.360       .  D
C223        C253   1.479       .  S
C223        C273   1.482       .  S
C224        C310   1.465   1_655  S
C224       C1058   1.465       .  S
C224       C1060   1.465   1_655  S
C224       C1143   1.465       .  S
C225        C226   1.206       .  T
C226       C1056   1.465       .  S
C227        C228   1.206       .  T
C228       C1056   1.465       .  S
C229        H235   1.083       .  S
C229        C230   1.406       .  A
C229        C234   1.400       .  A
C230       C1063   1.406       .  A
C231        H236   1.082       .  S
C231        C232   1.396       .  A
C231       C1062   1.406       .  A
C232        H237   1.083       .  S
C232        C233   1.399   1_455  A
C233       C1066   1.402       .  A
C234        H238   1.083       .  S
C234       C1065   1.402       .  A
C239        H245   1.082       .  S
C239        C240   1.406       .  A
C239        C244   1.396       .  A
C240       C1073   1.405       .  A
C241        H246   1.083       .  S
C241        C242   1.400       .  A
C241       C1072   1.405   1_455  A
C242        H247   1.083       .  S
C242        C243   1.403   1_455  A
C243       C1076   1.400       .  A
C244        H248   1.083       .  S
C244       C1075   1.400       .  A
C249        H255   1.082       .  S
C249        C254   1.397       .  A
C249        C666   1.406       .  A
C250        C251   1.405   1_565  A
C250        C665   1.406       .  A
C251        H256   1.083       .  S
C251        C252   1.399       .  A
C252        H257   1.083       .  S
C252        C669   1.401   1_545  A
C253        C254   1.400       .  A
C253        C668   1.401       .  A
C254        H258   1.083       .  S
C259        H265   1.083       .  S
C259        C264   1.399       .  A
C259        C676   1.406       .  A
C260        C261   1.406       .  A
C260        C675   1.406   1_545  A
C261        H266   1.082       .  S
C261        C262   1.397       .  A
C262        H267   1.083       .  S
C262        C679   1.400       .  A
C263        C264   1.402       .  A
C263        C678   1.400       .  A
C264        H268   1.083       .  S
C269        H275   1.082       .  S
C269        C270   1.405       .  A
C269        C274   1.397       .  A
C270        C687   1.405   1_545  A
C271        H276   1.083       .  S
C271        C272   1.399       .  A
C271        C686   1.405       .  A
C272        H277   1.083       .  S
C272        C273   1.402       .  A
C273        C690   1.402       .  A
C274        H278   1.083       .  S
C274        C689   1.402       .  A
C279        H285   1.083       .  S
C279        C280   1.405   1_545  A
C279        C284   1.399       .  A
C280        C697   1.405       .  A
C281        H286   1.082       .  S
C281        C282   1.397       .  A
C281        C696   1.405       .  A
C282        H287   1.083       .  S
C282        C283   1.401       .  A
C283        C700   1.402       .  A
C284        H288   1.083       .  S
C284        C699   1.402   1_545  A
C289        H295   1.083       .  S
C289        C294   1.399       .  A
C289       C1122   1.405   1_455  A
C290        C291   1.406       .  A
C290       C1121   1.405       .  A
C291        H296   1.082       .  S
C291        C292   1.397       .  A
C292        H297   1.083       .  S
C292       C1125   1.400       .  A
C293        C294   1.403   1_655  A
C293       C1124   1.400       .  A
C294        H298   1.083       .  S
C299        H305   1.083       .  S
C299        C300   1.405       .  A
C299        C304   1.399       .  A
C300       C1133   1.405       .  A
C301        H306   1.082       .  S
C301        C302   1.396       .  A
C301       C1132   1.405       .  A
C302        H307   1.083       .  S
C302        C303   1.400   1_455  A
C303       C1136   1.403       .  A
C304        H308   1.083       .  S
C304       C1135   1.403       .  A
C309        C310   1.206       .  T
C311       C1056   1.465       .  S
C311        C312   1.206       .  T
C313        H319   1.083       .  S
C313        C314   1.400       .  A
C313        C318   1.396       .  A
C314        C315   1.402       .  A
C315        H320   1.083       .  S
C315        C316   1.399       .  A
C316        H321   1.083       .  S
C316        C317   1.406       .  A
C317        C318   1.407       .  A
C318        H322   1.081       .  S
C323        H329   1.083       .  S
C323        C324   1.402       .  A
C323        C328   1.399       .  A
C324        C325   1.400       .  A
C325        H330   1.083       .  S
C325        C326   1.397       .  A
C326        H331   1.081       .  S
C326        C327   1.407       .  A
C327        C328   1.405       .  A
C328        H332   1.083       .  S
C333        H339   1.083       .  S
C333        C334   1.400       .  A
C333        C338   1.397       .  A
C334        C335   1.402       .  A
C335        H340   1.083       .  S
C335        C336   1.399       .  A
C336        H341   1.083       .  S
C336        C337   1.405       .  A
C337        C338   1.407       .  A
C338        H342   1.081       .  S
C343        H349   1.083       .  S
C343        C344   1.400       .  A
C343        C348   1.397       .  A
C344        C345   1.401       .  A
C345        H350   1.083       .  S
C345        C346   1.399       .  A
C346        H351   1.083       .  S
C346        C347   1.406       .  A
C347        C348   1.407       .  A
C348        H352   1.081       .  S
C353        C837   1.465       .  S
C353        C354   1.206       .  T
C355        C837   1.466       .  S
C355        C356   1.206       .  T
C357        C358   1.206       .  T
C359        C360   1.206       .  T
C360        C837   1.465       .  S
C361        C420   1.465   1_565  S
C361        C362   1.206       .  T
C363        C364   1.206       .  T
C364        C420   1.465       .  S
C365        C366   1.206       .  T
C366        C420   1.465       .  S
C367        C368   1.206       .  T
C369        H375   1.083       .  S
C369        C370   1.404       .  A
C369        C374   1.400       .  A
C370        C371   1.401       .  A
C371        H376   1.083       .  S
C371        C372   1.396       .  A
C372        H377   1.082       .  S
C372        C373   1.405       .  A
C373        C374   1.405       .  A
C374        H378   1.083       .  S
C379        H385   1.083       .  S
C379        C380   1.404       .  A
C379        C384   1.399       .  A
C380        C381   1.400       .  A
C381        H386   1.083       .  S
C381        C382   1.396       .  A
C382        H387   1.082       .  S
C382        C383   1.405       .  A
C383        C384   1.405       .  A
C384        H388   1.083       .  S
C389        H395   1.083       .  S
C389        C390   1.401       .  A
C389        C394   1.397       .  A
C390        C391   1.402       .  A
C391        H396   1.083       .  S
C391        C392   1.399       .  A
C392        H397   1.083       .  S
C392        C393   1.405       .  A
C393        C394   1.405       .  A
C394        H398   1.082       .  S
C399        H405   1.083       .  S
C399        C400   1.402       .  A
C399        C404   1.399       .  A
C400        C401   1.402       .  A
C401        H406   1.083       .  S
C401        C402   1.397       .  A
C402        H407   1.082       .  S
C402        C403   1.405       .  A
C403        C404   1.405       .  A
C404        H408   1.083       .  S
C409        C410   1.206       .  T
C410        C417   1.465       .  S
C411        C417   1.465       .  S
C411        C412   1.206   1_545  T
C413        C414   1.206       .  T
C414        C417   1.465       .  S
C415        C416   1.206       .  T
C417        C832   1.465   1_545  S
C418        C796   1.482       .  S
C418        C816   1.483   1_554  S
C418       C1251   1.362       .  D
C419        C786   1.483       .  S
C419        C806   1.482   1_554  S
C419       C1250   1.362   1_455  D
C420        C783   1.465   1_545  S
C421       C1601   1.465       .  S
C421       C1603   1.466   1_655  S
C421        C773   1.465   1_655  S
C421       C1608   1.465       .  S
C422        C740   1.480       .  S
C422        C760   1.479   1_554  S
C423        C730   1.479       .  S
C423        C750   1.480   1_554  S
C424        N442   1.352       .  A
C424        C461   1.459       .  S
C424        C763   1.479       .  S
N425        N442   1.325       .  A
N425        N447   1.319       .  A
N425       Co462   2.089       .  S
C426        N451   1.341       .  A
C426        C464   1.456       .  S
C426        H471   1.082       .  S
H427        C468   1.081       .  S
C428        N452   1.339       .  A
C428        C432   1.459       .  S
C428        H457   1.081       .  S
Co429       N447   2.077       .  S
Co429       N437   2.088       .  S
Co429       N469   2.087       .  S
Co429       N445   2.084       .  S
Co429      Cl473   2.449       .  S
N430        C468   1.339       .  A
N430        N437   1.319       .  A
N430       Co431   2.077       .  S
Co431       N434   2.089       .  S
Co431       N451   2.086       .  S
Co431       N438   2.082       .  S
Co431      Cl473   2.453       .  S
C432        N470   1.352       .  A
C432        C753   1.479       .  S
N433        N440   1.319       .  A
N433        N463   1.325       .  A
N433       Co466   2.089       .  S
N434        N452   1.319       .  A
N434        N470   1.326       .  A
N435        C464   1.347       .  A
N435        N445   1.324       .  A
H436        C461   1.081       .  S
N437        N458   1.325       .  A
N438        N456   1.321       .  A
N438        N443   1.324       .  A
C439        N443   1.347       .  A
C439        C467   1.457       .  S
C439        C781   1.435       .  S
N440        C455   1.340       .  A
N440       Co462   2.077       .  S
C441        N469   1.342       .  A
C441        C444   1.457       .  S
C441        H475   1.082       .  S
C444        N465   1.347       .  A
C444        C784   1.435       .  S
N445        N451   1.321       .  A
N446        C472   1.341       .  A
N446        N448   1.321       .  A
N446       Co462   2.085       .  S
N447        C461   1.339       .  A
N448        N476   1.324       .  A
N448       Co466   2.084       .  S
H449        C472   1.082       .  S
H450        C467   1.082       .  S
N452       Co466   2.076       .  S
N453        N465   1.324       .  A
N453        N469   1.321       .  A
N453       Co462   2.082       .  S
C454        N458   1.351       .  A
C454        C468   1.458       .  S
C454        C809   1.475       .  S
C455        C474   1.458       .  S
C455        H459   1.081       .  S
N456        C467   1.342       .  A
N456       Co466   2.088       .  S
C460        N476   1.347       .  A
C460        C472   1.456       .  S
C460        C775   1.434       .  S
Co462      Cl473   2.452       .  S
N463        C474   1.351       .  A
C464        C774   1.434       .  S
Co466      Cl473   2.448       .  S
C474        C819   1.475       .  S
C477        N495   1.346       .  A
C477        C514   1.457       .  S
C477        C831   1.434       .  S
N478        N495   1.324       .  A
N478        N500   1.321       .  A
N478       Co515   2.080       .  S
C479        N504   1.339       .  A
C479        C517   1.458       .  S
C479        H524   1.081       .  S
H480        C521   1.082       .  S
C481        N505   1.342       .  A
C481        C485   1.457       .  S
C481        H510   1.082       .  S
Co482       N500   2.089       .  S
Co482       N490   2.079       .  S
Co482       N522   2.074       .  S
Co482       N498   2.089       .  S
Co482      Cl526   2.452       .  S
N483        C521   1.342       .  A
N483        N490   1.321       .  A
N483       Co484   2.091       .  S
Co484       N487   2.081       .  S
Co484       N504   2.077       .  S
Co484       N491   2.090       .  S
Co484      Cl526   2.448       .  S
C485        N523   1.346       .  A
C485        C829   1.434       .  S
N486        N493   1.321       .  A
N486        N516   1.324       .  A
N486       Co519   2.079       .  S
N487        N505   1.321       .  A
N487        N523   1.324       .  A
N488        C517   1.351       .  A
N488        N498   1.326       .  A
H489        C514   1.082       .  S
N490        N511   1.324       .  A
N491        N509   1.318       .  A
N491        N496   1.326       .  A
C492        N496   1.352       .  A
C492        C520   1.459       .  S
C492        C733   1.479       .  S
N493        C508   1.341       .  A
N493       Co515   2.090       .  S
C494        N522   1.338       .  A
C494        C497   1.458       .  S
C494        H528   1.081       .  S
C497        N518   1.352       .  A
C497        C743   1.478       .  S
N498        N504   1.319       .  A
N499        C525   1.339       .  A
N499        N501   1.319       .  A
N499       Co515   2.076       .  S
N500        C514   1.342       .  A
N501        N529   1.326       .  A
N501       Co519   2.089       .  S
H502        C525   1.081       .  S
H503        C520   1.081       .  S
N505       Co519   2.089       .  S
N506        N518   1.326       .  A
N506        N522   1.318       .  A
N506       Co515   2.090       .  S
C507        N511   1.346       .  A
C507        C521   1.457       .  S
C507        C725   1.434       .  S
C508        C527   1.457       .  S
C508        H512   1.082       .  S
N509        C520   1.338       .  A
N509       Co519   2.075       .  S
C513        N529   1.351       .  A
C513        C525   1.458       .  S
C513        C799   1.476       .  S
Co515      Cl526   2.449       .  S
N516        C527   1.346       .  A
C517        C789   1.476       .  S
Co519      Cl526   2.453       .  S
C527        C728   1.434       .  S
C530        C567   1.456       .  S
C530        C779   1.435       .  S
N531        N548   1.324       .  A
N531       Co568   2.085       .  S
C532        N557   1.339       .  A
C532        C570   1.459       .  S
C532        H577   1.081       .  S
H533        C574   1.082       .  S
C534        N558   1.341       .  A
C534        H563   1.082       .  S
Co535       N553   2.085       .  S
Co535       N543   2.082       .  S
Co535       N575   2.078       .  S
Co535       N551   2.087       .  S
Co535     Cl1411   2.453   1_455  S
N536        C574   1.341       .  A
N536       N1375   1.321       .  A
N536       Co537   2.088       .  S
Co537       N540   2.085       .  S
Co537       N557   2.078       .  S
Co537       N544   2.087       .  S
Co537      Cl579   2.447       .  S
C538        N576   1.347       .  A
C538        C778   1.434       .  S
N539       N1378   1.321       .  A
N539        N569   1.324       .  A
N539       Co572   2.081       .  S
N540        N576   1.324       .  A
N541       C1402   1.351   1_455  A
N541        N551   1.325       .  A
H542        C567   1.082       .  S
N543       N1368   1.321   1_455  A
N543        N564   1.324       .  A
N544        N549   1.325       .  A
C545        N549   1.350       .  A
C545        C696   1.475       .  S
N546        C561   1.342       .  A
N546       N1371   1.321   1_455  A
N546       Co568   2.088       .  S
C547        N575   1.340       .  A
C547        C550   1.458       .  S
C547        H581   1.081       .  S
C550        C686   1.476       .  S
N551       N1389   1.319   1_455  A
N552        C578   1.339       .  A
N552       N1386   1.319   1_455  A
N552       Co568   2.078       .  S
N553        C567   1.341       .  A
N554       N1384   1.319       .  A
N554        N582   1.325       .  A
N554       Co572   2.087       .  S
H555        C578   1.081       .  S
H556        C573   1.081       .  S
N557       N1383   1.319       .  A
N558       Co572   2.085       .  S
N559        N571   1.325       .  A
N559       Co568   2.088       .  S
C560       N1396   1.347       .  A
C560        C574   1.457       .  S
C560        C770   1.434       .  S
C561       C1412   1.457       .  S
C561        H565   1.082       .  S
N562        C573   1.339       .  A
N562       Co572   2.078       .  S
N564       C1392   1.347   1_455  A
C566        N582   1.351       .  A
C566       C1410   1.458       .  S
C566        C716   1.476       .  S
Co568      Cl995   2.447   1_465  S
N569        C580   1.347       .  A
C570       N1373   1.351       .  A
C570        C706   1.476       .  S
C578       C1398   1.458       .  S
Cl579     Co1367   2.453       .  S
Cl579      Co984   2.447       .  S
C580       C1393   1.457       .  S
C580        C772   1.435       .  S
C583       N1433   1.346       .  A
C583        C620   1.457       .  S
C583        C641   1.435       .  S
N584        N601   1.324       .  A
N584       N1438   1.321   1_455  A
N584       Co621   2.080       .  S
C585        N610   1.339       .  A
C585        C623   1.458       .  S
C585        H630   1.081       .  S
H586        C627   1.082       .  S
C587        N611   1.341       .  A
C587       C1423   1.457       .  S
C587        H616   1.082       .  S
Co588       N606   2.090       .  S
Co588       N596   2.081       .  S
Co588       N628   2.075       .  S
Co588       N604   2.091       .  S
N589        C627   1.342       .  A
N589       Co590   2.088       .  S
Co590       N593   2.080       .  S
Co590       N610   2.075       .  S
Co590       N597   2.090       .  S
Co590      Cl632   2.454       .  S
C591        N629   1.347       .  A
C591       C1419   1.457       .  S
C591        C643   1.434       .  S
N592        N622   1.324       .  A
N592       Co625   2.081       .  S
N593       N1443   1.321       .  A
N593        N629   1.324       .  A
N594        N604   1.326       .  A
H595        C620   1.082       .  S
N596        N617   1.324       .  A
N597       N1447   1.319       .  A
N597        N602   1.326       .  A
C598        N602   1.352       .  A
C598       C1458   1.459       .  S
C598        C646   1.478       .  S
N599        C614   1.342       .  A
N599       Co621   2.088       .  S
C600        N628   1.338       .  A
C600        C603   1.458       .  S
C600        H634   1.081       .  S
N601       C1415   1.346   1_455  A
C603       N1456   1.352       .  A
C603        C656   1.477       .  S
N605        C631   1.339       .  A
N605       Co621   2.075       .  S
N606        C620   1.342       .  A
N606       N1416   1.321       .  A
N607        N635   1.326       .  A
N607       Co625   2.090       .  S
H608        C631   1.081       .  S
H609        C626   1.081       .  S
N611       N1425   1.321   1_455  A
N611       Co625   2.088       .  S
N612        N624   1.326       .  A
N612       N1460   1.319   1_455  A
N612       Co621   2.090       .  S
C613        C627   1.457       .  S
C613        C825   1.434       .  S
C614        H618   1.082       .  S
N615        C626   1.338       .  A
N615       N1429   1.319   1_455  A
N615       Co625   2.075       .  S
C619        N635   1.352       .  A
C619        C666   1.477       .  S
Co621     Cl1048   2.454   1_465  S
N622        C633   1.346       .  A
C623        C676   1.478       .  S
N624       C1435   1.352   1_455  A
Co625     Cl1464   2.447   1_455  S
C626       C1430   1.459       .  S
N628       N1444   1.319       .  A
Cl632     Co1037   2.454       .  S
Cl632     Co1457   2.447       .  S
C633        C828   1.434       .  S
C636        C659   1.481       .  S
C636        C719   1.482       .  S
C636        C637   1.360       .  D
C637        C649   1.480       .  S
C637        C709   1.481       .  S
C638        C679   1.480       .  S
C638        C699   1.481   1_545  S
C638        C639   1.360       .  D
C639        C669   1.479   1_545  S
C639        C689   1.482       .  S
C640       C1474   1.465       .  S
C640       C1476   1.465   1_655  S
C640        C726   1.465   1_655  S
C640       C1559   1.465       .  S
C641        C642   1.206       .  T
C642       C1472   1.465       .  S
C643        C644   1.206       .  T
C644       C1472   1.465       .  S
C645        H651   1.083       .  S
C645        C646   1.406       .  A
C645        C650   1.400       .  A
C646       C1479   1.406       .  A
C647        H652   1.082       .  S
C647       C1478   1.406       .  A
C647        C648   1.396       .  A
C648        H653   1.083       .  S
C648        C649   1.399   1_455  A
C649       C1482   1.402       .  A
C650        H654   1.083       .  S
C650       C1481   1.402       .  A
C655        H661   1.082       .  S
C655        C656   1.406       .  A
C655        C660   1.396       .  A
C656       C1489   1.405       .  A
C657        H662   1.083       .  S
C657       C1488   1.405   1_455  A
C657        C658   1.400       .  A
C658        H663   1.083       .  S
C658        C659   1.403   1_455  A
C659       C1492   1.400       .  A
C660        H664   1.083       .  S
C660       C1491   1.400       .  A
C665        H671   1.082       .  S
C665        C670   1.397       .  A
C666        C667   1.405       .  A
C667        H672   1.083       .  S
C667        C668   1.399       .  A
C668        H673   1.083       .  S
C669        C670   1.400       .  A
C670        H674   1.083       .  S
C675        H681   1.083       .  S
C675        C680   1.399       .  A
C676        C677   1.406       .  A
C677        H682   1.082       .  S
C677        C678   1.397       .  A
C678        H683   1.083       .  S
C679        C680   1.402   1_545  A
C680        H684   1.083       .  S
C685        H691   1.082       .  S
C685        C686   1.405       .  A
C685        C690   1.397       .  A
C687        H692   1.083       .  S
C687        C688   1.399       .  A
C688        H693   1.083       .  S
C688        C689   1.402   1_565  A
C690        H694   1.083       .  S
C695        H701   1.083       .  S
C695        C696   1.405       .  A
C695        C700   1.399       .  A
C697        H702   1.082       .  S
C697        C698   1.397       .  A
C698        H703   1.083       .  S
C698        C699   1.401       .  A
C700        H704   1.083       .  S
C705        H711   1.083       .  S
C705       C1538   1.405   1_455  A
C705        C710   1.399       .  A
C706       C1537   1.405       .  A
C706        C707   1.406       .  A
C707        H712   1.082       .  S
C707        C708   1.397       .  A
C708        H713   1.083       .  S
C708       C1541   1.400       .  A
C709       C1540   1.400       .  A
C709        C710   1.403   1_655  A
C710        H714   1.083       .  S
C715        H721   1.083       .  S
C715        C716   1.405       .  A
C715        C720   1.399       .  A
C716       C1549   1.405       .  A
C717        H722   1.082       .  S
C717       C1548   1.405       .  A
C717        C718   1.396       .  A
C718        H723   1.083       .  S
C718        C719   1.400   1_455  A
C719       C1552   1.403       .  A
C720        H724   1.083       .  S
C720       C1551   1.403       .  A
C725        C726   1.206       .  T
C727       C1472   1.465       .  S
C727        C728   1.206       .  T
C729        H735   1.083       .  S
C729        C730   1.400       .  A
C729        C734   1.396       .  A
C730        C731   1.402       .  A
C731        H736   1.083       .  S
C731        C732   1.399       .  A
C732        H737   1.083       .  S
C732        C733   1.406       .  A
C733        C734   1.407       .  A
C734        H738   1.081       .  S
C739        H745   1.083       .  S
C739        C740   1.402       .  A
C739        C744   1.399       .  A
C740        C741   1.400       .  A
C741        H746   1.083       .  S
C741        C742   1.397       .  A
C742        H747   1.081       .  S
C742        C743   1.407       .  A
C743        C744   1.405       .  A
C744        H748   1.083       .  S
C749        H755   1.083       .  S
C749        C750   1.400       .  A
C749        C754   1.397       .  A
C750        C751   1.402       .  A
C751        H756   1.083       .  S
C751        C752   1.399       .  A
C752        H757   1.083       .  S
C752        C753   1.405       .  A
C753        C754   1.407       .  A
C754        H758   1.081       .  S
C759        H765   1.083       .  S
C759        C760   1.400       .  A
C759        C764   1.397       .  A
C760        C761   1.401       .  A
C761        H766   1.083       .  S
C761        C762   1.399       .  A
C762        H767   1.083       .  S
C762        C763   1.406       .  A
C763        C764   1.407       .  A
C764        H768   1.081       .  S
C769       C1253   1.465       .  S
C769        C770   1.206       .  T
C771       C1253   1.466       .  S
C771        C772   1.206       .  T
C773        C774   1.206       .  T
C775        C776   1.206       .  T
C776       C1253   1.465       .  S
C777        C778   1.206       .  T
C779        C780   1.206       .  T
C781        C782   1.206       .  T
C783        C784   1.206       .  T
C785        H791   1.083       .  S
C785        C786   1.404       .  A
C785        C790   1.400       .  A
C786        C787   1.401       .  A
C787        H792   1.083       .  S
C787        C788   1.396       .  A
C788        H793   1.082       .  S
C788        C789   1.405       .  A
C789        C790   1.405       .  A
C790        H794   1.083       .  S
C795        H801   1.083       .  S
C795        C796   1.404       .  A
C795        C800   1.399       .  A
C796        C797   1.400       .  A
C797        H802   1.083       .  S
C797        C798   1.396       .  A
C798        H803   1.082       .  S
C798        C799   1.405       .  A
C799        C800   1.405       .  A
C800        H804   1.083       .  S
C805        H811   1.083       .  S
C805        C806   1.401       .  A
C805        C810   1.397       .  A
C806        C807   1.402       .  A
C807        H812   1.083       .  S
C807        C808   1.399       .  A
C808        H813   1.083       .  S
C808        C809   1.405       .  A
C809        C810   1.405       .  A
C810        H814   1.082       .  S
C815        H821   1.083       .  S
C815        C816   1.402       .  A
C815        C820   1.399       .  A
C816        C817   1.402       .  A
C817        H822   1.083       .  S
C817        C818   1.397       .  A
C818        H823   1.082       .  S
C818        C819   1.405       .  A
C819        C820   1.405       .  A
C820        H824   1.083       .  S
C825        C826   1.206       .  T
C827        C828   1.206       .  T
C829        C830   1.206       .  T
C831        C832   1.206       .  T
C833       C1658   1.465       .  S
C833       C1659   1.465       .  S
C833       C1662   1.465       .  S
C833       C1248   1.465       .  S
C834       C1212   1.482       .  S
C834       C1232   1.483   1_554  S
C835       C1202   1.483       .  S
C835       C1222   1.482   1_554  S
C836       C1609   1.465       .  S
C836       C1612   1.465       .  S
C836       C1614   1.465       .  S
C836       C1199   1.465       .  S
C837       C1189   1.465       .  S
C838       C1156   1.480       .  S
C838       C1176   1.479   1_554  S
C838       C1255   1.358       .  D
C839       C1146   1.479       .  S
C839       C1166   1.480   1_554  S
C839       C1254   1.358   1_545  D
C840        N858   1.352       .  A
C840        C877   1.459       .  S
C840       C1179   1.479       .  S
N841        N858   1.325       .  A
N841        N863   1.319       .  A
N841       Co878   2.089       .  S
C842        N867   1.341       .  A
C842        C880   1.456       .  S
C842        H887   1.082       .  S
H843        C884   1.081       .  S
C844        N868   1.339       .  A
C844        C848   1.459       .  S
C844        H873   1.081       .  S
Co845       N863   2.077       .  S
Co845       N853   2.088       .  S
Co845       N885   2.087       .  S
Co845       N861   2.084       .  S
Co845      Cl889   2.449       .  S
N846        C884   1.339       .  A
N846        N853   1.319       .  A
N846       Co847   2.077       .  S
Co847       N850   2.089       .  S
Co847       N867   2.086       .  S
Co847       N854   2.082       .  S
Co847      Cl889   2.453       .  S
C848        N886   1.352       .  A
C848       C1169   1.479       .  S
N849        N856   1.319       .  A
N849        N879   1.325       .  A
N849       Co882   2.089       .  S
N850        N868   1.319       .  A
N850        N886   1.326       .  A
N851        C880   1.347       .  A
N851        N861   1.324       .  A
H852        C877   1.081       .  S
N853        N874   1.325       .  A
N854        N872   1.321       .  A
N854        N859   1.324       .  A
C855        N859   1.347       .  A
C855        C883   1.457       .  S
C855       C1197   1.435       .  S
N856        C871   1.340       .  A
N856       Co878   2.077       .  S
C857        N885   1.342       .  A
C857        C860   1.457       .  S
C857        H891   1.082       .  S
C860        N881   1.347       .  A
C860       C1200   1.435       .  S
N861        N867   1.321       .  A
N862        C888   1.341       .  A
N862        N864   1.321       .  A
N862       Co878   2.085       .  S
N863        C877   1.339       .  A
N864        N892   1.324       .  A
N864       Co882   2.084       .  S
H865        C888   1.082       .  S
H866        C883   1.082       .  S
N868       Co882   2.076       .  S
N869        N881   1.324       .  A
N869        N885   1.321       .  A
N869       Co878   2.082       .  S
C870        N874   1.351       .  A
C870        C884   1.458       .  S
C870       C1225   1.475       .  S
C871        C890   1.458       .  S
C871        H875   1.081       .  S
N872        C883   1.342       .  A
N872       Co882   2.088       .  S
C876        N892   1.347       .  A
C876        C888   1.456       .  S
C876       C1191   1.434       .  S
Co878      Cl889   2.452       .  S
N879        C890   1.351       .  A
C880       C1190   1.434       .  S
Co882      Cl889   2.448       .  S
C890       C1235   1.475       .  S
C893        N911   1.346       .  A
C893        C930   1.457       .  S
C893       C1247   1.434       .  S
N894        N911   1.324       .  A
N894        N916   1.321       .  A
N894       Co931   2.080       .  S
C895        N920   1.339       .  A
C895        C933   1.458       .  S
C895        H940   1.081       .  S
H896        C937   1.082       .  S
C897        N921   1.342       .  A
C897        C901   1.457       .  S
C897        H926   1.082       .  S
Co898       N916   2.089       .  S
Co898       N906   2.079       .  S
Co898       N938   2.074       .  S
Co898       N914   2.089       .  S
Co898      Cl942   2.452       .  S
N899        C937   1.342       .  A
N899        N906   1.321       .  A
N899       Co900   2.091       .  S
Co900       N903   2.081       .  S
Co900       N920   2.077       .  S
Co900       N907   2.090       .  S
Co900      Cl942   2.448       .  S
C901        N939   1.346       .  A
C901       C1245   1.434       .  S
N902        N909   1.321       .  A
N902        N932   1.324       .  A
N902       Co935   2.079       .  S
N903        N921   1.321       .  A
N903        N939   1.324       .  A
N904        C933   1.351       .  A
N904        N914   1.326       .  A
H905        C930   1.082       .  S
N906        N927   1.324       .  A
N907        N925   1.318       .  A
N907        N912   1.326       .  A
C908        N912   1.352       .  A
C908        C936   1.459       .  S
C908       C1149   1.479       .  S
N909        C924   1.341       .  A
N909       Co931   2.090       .  S
C910        N938   1.338       .  A
C910        C913   1.458       .  S
C910        H944   1.081       .  S
C913        N934   1.352       .  A
C913       C1159   1.478       .  S
N914        N920   1.319       .  A
N915        C941   1.339       .  A
N915        N917   1.319       .  A
N915       Co931   2.076       .  S
N916        C930   1.342       .  A
N917        N945   1.326       .  A
N917       Co935   2.089       .  S
H918        C941   1.081       .  S
H919        C936   1.081       .  S
N921       Co935   2.089       .  S
N922        N934   1.326       .  A
N922        N938   1.318       .  A
N922       Co931   2.090       .  S
C923        N927   1.346       .  A
C923        C937   1.457       .  S
C923       C1141   1.434       .  S
C924        C943   1.457       .  S
C924        H928   1.082       .  S
N925        C936   1.338       .  A
N925       Co935   2.075       .  S
C929        N945   1.351       .  A
C929        C941   1.458       .  S
C929       C1215   1.476       .  S
Co931      Cl942   2.449       .  S
N932        C943   1.346       .  A
C933       C1205   1.476       .  S
Co935      Cl942   2.453       .  S
C943       C1144   1.434       .  S
C946       N1380   1.348   1_545  A
C946        C983   1.456       .  S
C946       C1195   1.435       .  S
N947        N964   1.324       .  A
N947       N1385   1.321       .  A
N947       Co984   2.085       .  S
C948        N973   1.339       .  A
C948        C986   1.459       .  S
C948        H993   1.081       .  S
H949        C990   1.082       .  S
C950        N974   1.341       .  A
C950       C1370   1.455       .  S
C950        H979   1.082       .  S
Co951       N969   2.085       .  S
Co951       N959   2.082       .  S
Co951       N991   2.078       .  S
Co951       N967   2.087       .  S
N952        C990   1.341       .  A
N952       Co953   2.088       .  S
Co953       N956   2.085       .  S
Co953       N973   2.078       .  S
Co953       N960   2.087       .  S
Co953      Cl995   2.447       .  S
C954        N992   1.347   1_565  A
C954       C1366   1.455       .  S
C954       C1194   1.434       .  S
N955        N985   1.324       .  A
N955       Co988   2.081       .  S
N956       N1390   1.321   1_545  A
N956        N992   1.324       .  A
N957        N967   1.325       .  A
H958        C983   1.082       .  S
N959        N980   1.324       .  A
N960       N1394   1.319   1_545  A
N960        N965   1.325       .  A
C961        N965   1.350   1_565  A
C961       C1405   1.458       .  S
C961       C1112   1.475       .  S
N962        C977   1.342       .  A
N962       Co984   2.088       .  S
C963        N991   1.340       .  A
C963        C966   1.458       .  S
C963        H997   1.081       .  S
N964       C1362   1.348       .  A
C966       N1403   1.351   1_545  A
C966       C1102   1.476       .  S
N968        C994   1.339       .  A
N968       Co984   2.078       .  S
N969        C983   1.341       .  A
N969       N1363   1.321   1_545  A
N970        N998   1.325       .  A
N970       Co988   2.087       .  S
H971        C994   1.081       .  S
H972        C989   1.081       .  S
N974       N1372   1.321       .  A
N974       Co988   2.085       .  S
N975        N987   1.325       .  A
N975       N1407   1.319       .  A
N975       Co984   2.088       .  S
C976        C990   1.457       .  S
C976       C1186   1.434       .  S
C977        H981   1.082       .  S
N978        C989   1.339       .  A
N978       N1376   1.319       .  A
N978       Co988   2.078       .  S
C982        N998   1.351   1_455  A
C982       C1132   1.476       .  S
N985        C996   1.347   1_655  A
C986       C1122   1.476       .  S
N987       C1382   1.351       .  A
Co988     Cl1411   2.454       .  S
C989       C1377   1.458       .  S
N991       N1391   1.319   1_545  A
Cl995     Co1404   2.454   1_545  S
C996       C1188   1.435       .  S
C999       C1036   1.457       .  S
C999       C1057   1.435       .  S
N1000      N1017   1.324       .  A
N1000     Co1037   2.080       .  S
C1001      N1026   1.339       .  A
C1001      C1039   1.458       .  S
C1001      H1046   1.081       .  S
H1002      C1043   1.082       .  S
C1003      N1027   1.341       .  A
C1003      H1032   1.082       .  S
Co1004     N1022   2.090       .  S
Co1004     N1012   2.081       .  S
Co1004     N1044   2.075       .  S
Co1004     N1020   2.091       .  S
Co1004    Cl1464   2.447       .  S
N1005      C1043   1.342       .  A
N1005      N1428   1.321   1_545  A
N1005     Co1006   2.088       .  S
Co1006     N1009   2.080       .  S
Co1006     N1026   2.075       .  S
Co1006     N1013   2.090       .  S
Co1006    Cl1048   2.454       .  S
C1007      N1045   1.347   1_455  A
C1007      C1059   1.434       .  S
N1008      N1431   1.321   1_545  A
N1008      N1038   1.324       .  A
N1008     Co1041   2.081       .  S
N1009      N1045   1.324       .  A
N1010      C1455   1.352       .  A
N1010      N1020   1.326       .  A
H1011      C1036   1.082       .  S
N1012      N1421   1.321       .  A
N1012      N1033   1.324       .  A
N1013      N1018   1.326       .  A
C1014      N1018   1.352   1_455  A
C1014      C1062   1.478       .  S
N1015      C1030   1.342       .  A
N1015      N1424   1.321       .  A
N1015     Co1037   2.088       .  S
C1016      N1044   1.338       .  A
C1016      C1019   1.458       .  S
C1016      H1050   1.081       .  S
C1019      C1072   1.477       .  S
N1020      N1442   1.319       .  A
N1021      C1047   1.339       .  A
N1021      N1439   1.319       .  A
N1021     Co1037   2.075       .  S
N1022      C1036   1.342       .  A
N1023      N1437   1.319   1_545  A
N1023      N1051   1.326       .  A
N1023     Co1041   2.090       .  S
H1024      C1047   1.081       .  S
H1025      C1042   1.081       .  S
N1026      N1436   1.319   1_545  A
N1027     Co1041   2.088       .  S
N1028      N1040   1.326       .  A
N1028     Co1037   2.090       .  S
C1029      N1449   1.346   1_545  A
C1029      C1043   1.457       .  S
C1029      C1241   1.434       .  S
C1030      C1465   1.457       .  S
C1030      H1034   1.082       .  S
N1031      C1042   1.338       .  A
N1031     Co1041   2.075       .  S
N1033      C1445   1.346       .  A
C1035      N1051   1.352   1_565  A
C1035      C1463   1.458       .  S
C1035      C1082   1.477       .  S
N1038      C1049   1.346   1_545  A
C1039      N1426   1.352   1_545  A
C1039      C1092   1.478       .  S
C1047      C1451   1.458       .  S
Cl1048    Co1420   2.447   1_545  S
C1049      C1446   1.457       .  S
C1049      C1244   1.434       .  S
C1052      C1075   1.481       .  S
C1052      C1135   1.482       .  S
C1052      C1053   1.360       .  D
C1053      C1065   1.480       .  S
C1053      C1125   1.481       .  S
C1054      C1095   1.480       .  S
C1054      C1115   1.481       .  S
C1054      C1055   1.360       .  D
C1055      C1085   1.479       .  S
C1055      C1105   1.482       .  S
C1056      C1142   1.465       .  S
C1057      C1058   1.206       .  T
C1059      C1060   1.206       .  T
C1061      H1067   1.083       .  S
C1061      C1062   1.406   1_655  A
C1061      C1066   1.400       .  A
C1063      H1068   1.082       .  S
C1063      C1064   1.396       .  A
C1064      H1069   1.083       .  S
C1064      C1065   1.399       .  A
C1066      H1070   1.083       .  S
C1071      H1077   1.082       .  S
C1071      C1072   1.406       .  A
C1071      C1076   1.396       .  A
C1073      H1078   1.083       .  S
C1073      C1074   1.400       .  A
C1074      H1079   1.083       .  S
C1074      C1075   1.403       .  A
C1076      H1080   1.083       .  S
C1081      H1087   1.082       .  S
C1081      C1498   1.406       .  A
C1081      C1086   1.397       .  A
C1082      C1497   1.406       .  A
C1082      C1083   1.405   1_565  A
C1083      H1088   1.083       .  S
C1083      C1084   1.399       .  A
C1084      H1089   1.083       .  S
C1084      C1501   1.401   1_545  A
C1085      C1500   1.401       .  A
C1085      C1086   1.400       .  A
C1086      H1090   1.083       .  S
C1091      H1097   1.083       .  S
C1091      C1508   1.406       .  A
C1091      C1096   1.399       .  A
C1092      C1507   1.406   1_545  A
C1092      C1093   1.406       .  A
C1093      H1098   1.082       .  S
C1093      C1094   1.397       .  A
C1094      H1099   1.083       .  S
C1094      C1511   1.400       .  A
C1095      C1510   1.400       .  A
C1095      C1096   1.402       .  A
C1096      H1100   1.083       .  S
C1101      H1107   1.082       .  S
C1101      C1102   1.405       .  A
C1101      C1106   1.397       .  A
C1102      C1519   1.405   1_545  A
C1103      H1108   1.083       .  S
C1103      C1518   1.405       .  A
C1103      C1104   1.399       .  A
C1104      H1109   1.083       .  S
C1104      C1105   1.402       .  A
C1105      C1522   1.402       .  A
C1106      H1110   1.083       .  S
C1106      C1521   1.402       .  A
C1111      H1117   1.083       .  S
C1111      C1112   1.405   1_545  A
C1111      C1116   1.399       .  A
C1112      C1529   1.405       .  A
C1113      H1118   1.082       .  S
C1113      C1528   1.405       .  A
C1113      C1114   1.397       .  A
C1114      H1119   1.083       .  S
C1114      C1115   1.401       .  A
C1115      C1532   1.402       .  A
C1116      H1120   1.083       .  S
C1116      C1531   1.402   1_545  A
C1121      H1127   1.083       .  S
C1121      C1126   1.399       .  A
C1122      C1123   1.406       .  A
C1123      H1128   1.082       .  S
C1123      C1124   1.397       .  A
C1124      H1129   1.083       .  S
C1125      C1126   1.403       .  A
C1126      H1130   1.083       .  S
C1131      H1137   1.083       .  S
C1131      C1132   1.405   1_655  A
C1131      C1136   1.399       .  A
C1133      H1138   1.082       .  S
C1133      C1134   1.396       .  A
C1134      H1139   1.083       .  S
C1134      C1135   1.400       .  A
C1136      H1140   1.083       .  S
C1141      C1142   1.206       .  T
C1143      C1144   1.206       .  T
C1145      H1151   1.083       .  S
C1145      C1146   1.400       .  A
C1145      C1150   1.396       .  A
C1146      C1147   1.402       .  A
C1147      H1152   1.083       .  S
C1147      C1148   1.399       .  A
C1148      H1153   1.083       .  S
C1148      C1149   1.406       .  A
C1149      C1150   1.407       .  A
C1150      H1154   1.081       .  S
C1155      H1161   1.083       .  S
C1155      C1156   1.402       .  A
C1155      C1160   1.399       .  A
C1156      C1157   1.400       .  A
C1157      H1162   1.083       .  S
C1157      C1158   1.397       .  A
C1158      H1163   1.081       .  S
C1158      C1159   1.407       .  A
C1159      C1160   1.405       .  A
C1160      H1164   1.083       .  S
C1165      H1171   1.083       .  S
C1165      C1166   1.400       .  A
C1165      C1170   1.397       .  A
C1166      C1167   1.402       .  A
C1167      H1172   1.083       .  S
C1167      C1168   1.399       .  A
C1168      H1173   1.083       .  S
C1168      C1169   1.405       .  A
C1169      C1170   1.407       .  A
C1170      H1174   1.081       .  S
C1175      H1181   1.083       .  S
C1175      C1176   1.400       .  A
C1175      C1180   1.397       .  A
C1176      C1177   1.401       .  A
C1177      H1182   1.083       .  S
C1177      C1178   1.399       .  A
C1178      H1183   1.083       .  S
C1178      C1179   1.406       .  A
C1179      C1180   1.407       .  A
C1180      H1184   1.081       .  S
C1185      C1186   1.206       .  T
C1187      C1188   1.206       .  T
C1189      C1190   1.206       .  T
C1191      C1192   1.206       .  T
C1193      C1252   1.465   1_565  S
C1193      C1194   1.206       .  T
C1195      C1196   1.206       .  T
C1196      C1252   1.465       .  S
C1197      C1198   1.206       .  T
C1198      C1252   1.465       .  S
C1199      C1200   1.206       .  T
C1201      H1207   1.083       .  S
C1201      C1202   1.404       .  A
C1201      C1206   1.400       .  A
C1202      C1203   1.401       .  A
C1203      H1208   1.083       .  S
C1203      C1204   1.396       .  A
C1204      H1209   1.082       .  S
C1204      C1205   1.405       .  A
C1205      C1206   1.405       .  A
C1206      H1210   1.083       .  S
C1211      H1217   1.083       .  S
C1211      C1212   1.404       .  A
C1211      C1216   1.399       .  A
C1212      C1213   1.400       .  A
C1213      H1218   1.083       .  S
C1213      C1214   1.396       .  A
C1214      H1219   1.082       .  S
C1214      C1215   1.405       .  A
C1215      C1216   1.405       .  A
C1216      H1220   1.083       .  S
C1221      H1227   1.083       .  S
C1221      C1222   1.401       .  A
C1221      C1226   1.397       .  A
C1222      C1223   1.402       .  A
C1223      H1228   1.083       .  S
C1223      C1224   1.399       .  A
C1224      H1229   1.083       .  S
C1224      C1225   1.405       .  A
C1225      C1226   1.405       .  A
C1226      H1230   1.082       .  S
C1231      H1237   1.083       .  S
C1231      C1232   1.402       .  A
C1231      C1236   1.399       .  A
C1232      C1233   1.402       .  A
C1233      H1238   1.083       .  S
C1233      C1234   1.397       .  A
C1234      H1239   1.082       .  S
C1234      C1235   1.405       .  A
C1235      C1236   1.405       .  A
C1236      H1240   1.083       .  S
C1241      C1242   1.206       .  T
C1242      C1249   1.465       .  S
C1243      C1249   1.465       .  S
C1243      C1244   1.206   1_545  T
C1245      C1246   1.206       .  T
C1246      C1249   1.465       .  S
C1247      C1248   1.206       .  T
C1249      C1664   1.465   1_545  S
C1250      C1628   1.482       .  S
C1250      C1648   1.483   1_554  S
C1251      C1618   1.483       .  S
C1251      C1638   1.482   1_554  S
C1252      C1615   1.465   1_545  S
C1253      C1605   1.465       .  S
C1254      C1572   1.480       .  S
C1254      C1592   1.479   1_554  S
C1255      C1562   1.479       .  S
C1255      C1582   1.480   1_554  S
C1256      N1274   1.352       .  A
C1256      C1293   1.459       .  S
C1256      C1595   1.479       .  S
N1257      N1274   1.325       .  A
N1257      N1279   1.319       .  A
N1257     Co1294   2.089       .  S
C1258      N1283   1.341       .  A
C1258      C1296   1.456       .  S
C1258      H1303   1.082       .  S
H1259      C1300   1.081       .  S
C1260      N1284   1.339       .  A
C1260      C1264   1.459       .  S
C1260      H1289   1.081       .  S
Co1261     N1279   2.077       .  S
Co1261     N1269   2.088       .  S
Co1261     N1301   2.087       .  S
Co1261     N1277   2.084       .  S
Co1261    Cl1305   2.449       .  S
N1262      C1300   1.339       .  A
N1262      N1269   1.319       .  A
N1262     Co1263   2.077       .  S
Co1263     N1266   2.089       .  S
Co1263     N1283   2.086       .  S
Co1263     N1270   2.082       .  S
Co1263    Cl1305   2.453       .  S
C1264      N1302   1.352       .  A
C1264      C1585   1.479       .  S
N1265      N1272   1.319       .  A
N1265      N1295   1.325       .  A
N1265     Co1298   2.089       .  S
N1266      N1284   1.319       .  A
N1266      N1302   1.326       .  A
N1267      C1296   1.347       .  A
N1267      N1277   1.324       .  A
H1268      C1293   1.081       .  S
N1269      N1290   1.325       .  A
N1270      N1288   1.321       .  A
N1270      N1275   1.324       .  A
C1271      N1275   1.347       .  A
C1271      C1299   1.457       .  S
C1271      C1613   1.435       .  S
N1272      C1287   1.340       .  A
N1272     Co1294   2.077       .  S
C1273      N1301   1.342       .  A
C1273      C1276   1.457       .  S
C1273      H1307   1.082       .  S
C1276      N1297   1.347       .  A
C1276      C1616   1.435       .  S
N1277      N1283   1.321       .  A
N1278      C1304   1.341       .  A
N1278      N1280   1.321       .  A
N1278     Co1294   2.085       .  S
N1279      C1293   1.339       .  A
N1280      N1308   1.324       .  A
N1280     Co1298   2.084       .  S
H1281      C1304   1.082       .  S
H1282      C1299   1.082       .  S
N1284     Co1298   2.076       .  S
N1285      N1297   1.324       .  A
N1285      N1301   1.321       .  A
N1285     Co1294   2.082       .  S
C1286      N1290   1.351       .  A
C1286      C1300   1.458       .  S
C1286      C1641   1.475       .  S
C1287      C1306   1.458       .  S
C1287      H1291   1.081       .  S
N1288      C1299   1.342       .  A
N1288     Co1298   2.088       .  S
C1292      N1308   1.347       .  A
C1292      C1304   1.456       .  S
C1292      C1607   1.434       .  S
Co1294    Cl1305   2.452       .  S
N1295      C1306   1.351       .  A
C1296      C1606   1.434       .  S
Co1298    Cl1305   2.448       .  S
C1306      C1651   1.475       .  S
C1309      N1327   1.346       .  A
C1309      C1346   1.457       .  S
C1309      C1663   1.434       .  S
N1310      N1327   1.324       .  A
N1310      N1332   1.321       .  A
N1310     Co1347   2.080       .  S
C1311      N1336   1.339       .  A
C1311      C1349   1.458       .  S
C1311      H1356   1.081       .  S
H1312      C1353   1.082       .  S
C1313      N1337   1.342       .  A
C1313      C1317   1.457       .  S
C1313      H1342   1.082       .  S
Co1314     N1332   2.089       .  S
Co1314     N1322   2.079       .  S
Co1314     N1354   2.074       .  S
Co1314     N1330   2.089       .  S
Co1314    Cl1358   2.452       .  S
N1315      C1353   1.342       .  A
N1315      N1322   1.321       .  A
N1315     Co1316   2.091       .  S
Co1316     N1319   2.081       .  S
Co1316     N1336   2.077       .  S
Co1316     N1323   2.090       .  S
Co1316    Cl1358   2.448       .  S
C1317      N1355   1.346       .  A
C1317      C1661   1.434       .  S
N1318      N1325   1.321       .  A
N1318      N1348   1.324       .  A
N1318     Co1351   2.079       .  S
N1319      N1337   1.321       .  A
N1319      N1355   1.324       .  A
N1320      C1349   1.351       .  A
N1320      N1330   1.326       .  A
H1321      C1346   1.082       .  S
N1322      N1343   1.324       .  A
N1323      N1341   1.318       .  A
N1323      N1328   1.326       .  A
C1324      N1328   1.352       .  A
C1324      C1352   1.459       .  S
C1324      C1565   1.479       .  S
N1325      C1340   1.341       .  A
N1325     Co1347   2.090       .  S
C1326      N1354   1.338       .  A
C1326      C1329   1.458       .  S
C1326      H1360   1.081       .  S
C1329      N1350   1.352       .  A
C1329      C1575   1.478       .  S
N1330      N1336   1.319       .  A
N1331      C1357   1.339       .  A
N1331      N1333   1.319       .  A
N1331     Co1347   2.076       .  S
N1332      C1346   1.342       .  A
N1333      N1361   1.326       .  A
N1333     Co1351   2.089       .  S
H1334      C1357   1.081       .  S
H1335      C1352   1.081       .  S
N1337     Co1351   2.089       .  S
N1338      N1350   1.326       .  A
N1338      N1354   1.318       .  A
N1338     Co1347   2.090       .  S
C1339      N1343   1.346       .  A
C1339      C1353   1.457       .  S
C1339      C1557   1.434       .  S
C1340      C1359   1.457       .  S
C1340      H1344   1.082       .  S
N1341      C1352   1.338       .  A
N1341     Co1351   2.075       .  S
C1345      N1361   1.351       .  A
C1345      C1357   1.458       .  S
C1345      C1631   1.476       .  S
Co1347    Cl1358   2.449       .  S
N1348      C1359   1.346       .  A
C1349      C1621   1.476       .  S
Co1351    Cl1358   2.453       .  S
C1359      C1560   1.434       .  S
C1362      C1399   1.456       .  S
C1362      C1611   1.435       .  S
N1363      N1380   1.324       .  A
N1363     Co1400   2.085       .  S
C1364      N1389   1.339       .  A
C1364      C1402   1.459       .  S
C1364      H1409   1.081       .  S
H1365      C1406   1.082       .  S
C1366      N1390   1.341       .  A
C1366      H1395   1.082       .  S
Co1367     N1385   2.085       .  S
Co1367     N1375   2.082       .  S
Co1367     N1407   2.078       .  S
Co1367     N1383   2.087       .  S
N1368      C1406   1.341       .  A
N1368     Co1369   2.088       .  S
Co1369     N1372   2.085       .  S
Co1369     N1389   2.078       .  S
Co1369     N1376   2.087       .  S
Co1369    Cl1411   2.447       .  S
C1370      N1408   1.347       .  A
C1370      C1610   1.434       .  S
N1371      N1401   1.324       .  A
N1371     Co1404   2.081       .  S
N1372      N1408   1.324       .  A
N1373      N1383   1.325       .  A
H1374      C1399   1.082       .  S
N1375      N1396   1.324       .  A
N1376      N1381   1.325       .  A
C1377      N1381   1.350       .  A
C1377      C1528   1.475       .  S
N1378      C1393   1.342       .  A
N1378     Co1400   2.088       .  S
C1379      N1407   1.340       .  A
C1379      C1382   1.458       .  S
C1379      H1413   1.081       .  S
C1382      C1518   1.476       .  S
N1384      C1410   1.339       .  A
N1384     Co1400   2.078       .  S
N1385      C1399   1.341       .  A
N1386      N1414   1.325       .  A
N1386     Co1404   2.087       .  S
H1387      C1410   1.081       .  S
H1388      C1405   1.081       .  S
N1390     Co1404   2.085       .  S
N1391      N1403   1.325       .  A
N1391     Co1400   2.088       .  S
C1392      C1406   1.457       .  S
C1392      C1602   1.434       .  S
C1393      H1397   1.082       .  S
N1394      C1405   1.339       .  A
N1394     Co1404   2.078       .  S
C1398      N1414   1.351   1_455  A
C1398      C1548   1.476       .  S
N1401      C1412   1.347   1_655  A
C1402      C1538   1.476       .  S
C1412      C1604   1.435       .  S
C1415      C1452   1.457       .  S
C1415      C1473   1.435       .  S
N1416      N1433   1.324       .  A
N1416     Co1453   2.080       .  S
C1417      N1442   1.339       .  A
C1417      C1455   1.458       .  S
C1417      H1462   1.081       .  S
H1418      C1459   1.082       .  S
C1419      N1443   1.341       .  A
C1419      H1448   1.082       .  S
Co1420     N1438   2.090       .  S
Co1420     N1428   2.081       .  S
Co1420     N1460   2.075       .  S
Co1420     N1436   2.091       .  S
N1421      C1459   1.342       .  A
N1421     Co1422   2.088       .  S
Co1422     N1425   2.080       .  S
Co1422     N1442   2.075       .  S
Co1422     N1429   2.090       .  S
Co1422    Cl1464   2.454       .  S
C1423      N1461   1.347   1_455  A
C1423      C1475   1.434       .  S
N1424      N1454   1.324       .  A
N1424     Co1457   2.081       .  S
N1425      N1461   1.324       .  A
N1426      N1436   1.326       .  A
H1427      C1452   1.082       .  S
N1428      N1449   1.324       .  A
N1429      N1434   1.326       .  A
C1430      N1434   1.352   1_455  A
C1430      C1478   1.478       .  S
N1431      C1446   1.342       .  A
N1431     Co1453   2.088       .  S
C1432      N1460   1.338       .  A
C1432      C1435   1.458       .  S
C1432      H1466   1.081       .  S
C1435      C1488   1.477       .  S
N1437      C1463   1.339       .  A
N1437     Co1453   2.075       .  S
N1438      C1452   1.342       .  A
N1439      N1467   1.326       .  A
N1439     Co1457   2.090       .  S
H1440      C1463   1.081       .  S
H1441      C1458   1.081       .  S
N1443     Co1457   2.088       .  S
N1444      N1456   1.326       .  A
N1444     Co1453   2.090       .  S
C1445      C1459   1.457       .  S
C1445      C1657   1.434       .  S
C1446      H1450   1.082       .  S
N1447      C1458   1.338       .  A
N1447     Co1457   2.075       .  S
C1451      N1467   1.352       .  A
C1451      C1498   1.477       .  S
N1454      C1465   1.346       .  A
C1455      C1508   1.478       .  S
C1465      C1660   1.434       .  S
C1468      C1491   1.481       .  S
C1468      C1551   1.482       .  S
C1468      C1469   1.360       .  D
C1469      C1481   1.480       .  S
C1469      C1541   1.481       .  S
C1470      C1511   1.480       .  S
C1470      C1531   1.481   1_545  S
C1470      C1471   1.360       .  D
C1471      C1501   1.479   1_545  S
C1471      C1521   1.482       .  S
C1472      C1558   1.465       .  S
C1473      C1474   1.206       .  T
C1475      C1476   1.206       .  T
C1477      H1483   1.083       .  S
C1477      C1478   1.406   1_655  A
C1477      C1482   1.400       .  A
C1479      H1484   1.082       .  S
C1479      C1480   1.396       .  A
C1480      H1485   1.083       .  S
C1480      C1481   1.399       .  A
C1482      H1486   1.083       .  S
C1487      H1493   1.082       .  S
C1487      C1488   1.406       .  A
C1487      C1492   1.396       .  A
C1489      H1494   1.083       .  S
C1489      C1490   1.400       .  A
C1490      H1495   1.083       .  S
C1490      C1491   1.403       .  A
C1492      H1496   1.083       .  S
C1497      H1503   1.082       .  S
C1497      C1502   1.397       .  A
C1498      C1499   1.405       .  A
C1499      H1504   1.083       .  S
C1499      C1500   1.399       .  A
C1500      H1505   1.083       .  S
C1501      C1502   1.400       .  A
C1502      H1506   1.083       .  S
C1507      H1513   1.083       .  S
C1507      C1512   1.399       .  A
C1508      C1509   1.406       .  A
C1509      H1514   1.082       .  S
C1509      C1510   1.397       .  A
C1510      H1515   1.083       .  S
C1511      C1512   1.402   1_545  A
C1512      H1516   1.083       .  S
C1517      H1523   1.082       .  S
C1517      C1518   1.405       .  A
C1517      C1522   1.397       .  A
C1519      H1524   1.083       .  S
C1519      C1520   1.399       .  A
C1520      H1525   1.083       .  S
C1520      C1521   1.402   1_565  A
C1522      H1526   1.083       .  S
C1527      H1533   1.083       .  S
C1527      C1528   1.405       .  A
C1527      C1532   1.399       .  A
C1529      H1534   1.082       .  S
C1529      C1530   1.397       .  A
C1530      H1535   1.083       .  S
C1530      C1531   1.401       .  A
C1532      H1536   1.083       .  S
C1537      H1543   1.083       .  S
C1537      C1542   1.399       .  A
C1538      C1539   1.406       .  A
C1539      H1544   1.082       .  S
C1539      C1540   1.397       .  A
C1540      H1545   1.083       .  S
C1541      C1542   1.403       .  A
C1542      H1546   1.083       .  S
C1547      H1553   1.083       .  S
C1547      C1548   1.405   1_655  A
C1547      C1552   1.399       .  A
C1549      H1554   1.082       .  S
C1549      C1550   1.396       .  A
C1550      H1555   1.083       .  S
C1550      C1551   1.400       .  A
C1552      H1556   1.083       .  S
C1557      C1558   1.206       .  T
C1559      C1560   1.206       .  T
C1561      H1567   1.083       .  S
C1561      C1562   1.400       .  A
C1561      C1566   1.396       .  A
C1562      C1563   1.402       .  A
C1563      H1568   1.083       .  S
C1563      C1564   1.399       .  A
C1564      H1569   1.083       .  S
C1564      C1565   1.406       .  A
C1565      C1566   1.407       .  A
C1566      H1570   1.081       .  S
C1571      H1577   1.083       .  S
C1571      C1572   1.402       .  A
C1571      C1576   1.399       .  A
C1572      C1573   1.400       .  A
C1573      H1578   1.083       .  S
C1573      C1574   1.397       .  A
C1574      H1579   1.081       .  S
C1574      C1575   1.407       .  A
C1575      C1576   1.405       .  A
C1576      H1580   1.083       .  S
C1581      H1587   1.083       .  S
C1581      C1582   1.400       .  A
C1581      C1586   1.397       .  A
C1582      C1583   1.402       .  A
C1583      H1588   1.083       .  S
C1583      C1584   1.399       .  A
C1584      H1589   1.083       .  S
C1584      C1585   1.405       .  A
C1585      C1586   1.407       .  A
C1586      H1590   1.081       .  S
C1591      H1597   1.083       .  S
C1591      C1592   1.400       .  A
C1591      C1596   1.397       .  A
C1592      C1593   1.401       .  A
C1593      H1598   1.083       .  S
C1593      C1594   1.399       .  A
C1594      H1599   1.083       .  S
C1594      C1595   1.406       .  A
C1595      C1596   1.407       .  A
C1596      H1600   1.081       .  S
C1601      C1602   1.206       .  T
C1603      C1604   1.206       .  T
C1605      C1606   1.206       .  T
C1607      C1608   1.206       .  T
C1609      C1610   1.206       .  T
C1611      C1612   1.206       .  T
C1613      C1614   1.206       .  T
C1615      C1616   1.206       .  T
C1617      H1623   1.083       .  S
C1617      C1618   1.404       .  A
C1617      C1622   1.400       .  A
C1618      C1619   1.401       .  A
C1619      H1624   1.083       .  S
C1619      C1620   1.396       .  A
C1620      H1625   1.082       .  S
C1620      C1621   1.405       .  A
C1621      C1622   1.405       .  A
C1622      H1626   1.083       .  S
C1627      H1633   1.083       .  S
C1627      C1628   1.404       .  A
C1627      C1632   1.399       .  A
C1628      C1629   1.400       .  A
C1629      H1634   1.083       .  S
C1629      C1630   1.396       .  A
C1630      H1635   1.082       .  S
C1630      C1631   1.405       .  A
C1631      C1632   1.405       .  A
C1632      H1636   1.083       .  S
C1637      H1643   1.083       .  S
C1637      C1638   1.401       .  A
C1637      C1642   1.397       .  A
C1638      C1639   1.402       .  A
C1639      H1644   1.083       .  S
C1639      C1640   1.399       .  A
C1640      H1645   1.083       .  S
C1640      C1641   1.405       .  A
C1641      C1642   1.405       .  A
C1642      H1646   1.082       .  S
C1647      H1653   1.083       .  S
C1647      C1648   1.402       .  A
C1647      C1652   1.399       .  A
C1648      C1649   1.402       .  A
C1649      H1654   1.083       .  S
C1649      C1650   1.397       .  A
C1650      H1655   1.082       .  S
C1650      C1651   1.405       .  A
C1651      C1652   1.405       .  A
C1652      H1656   1.083       .  S
C1657      C1658   1.206       .  T
C1659      C1660   1.206       .  T
C1661      C1662   1.206       .  T
C1663      C1664   1.206       .  T
