geometry optimzed in LAMMPS
_audit_creation_date              2020-12-01 
_audit_creation_method            'lammps2cif' 
_symmetry_space_group_name_H-M    'P1' 
_symmetry_Int_Tables_number       1 
_symmetry_cell_setting            triclinic 
loop_ 
_symmetry_equiv_pos_as_xyz 
  x,y,z 
_cell_length_a                    53.4023895 
_cell_length_b                    53.58864937368528 
_cell_length_c                    30.52002442463119 
_cell_angle_alpha                 89.19000994643503 
_cell_angle_beta                  90.72859113386293 
_cell_angle_gamma                 120.53186116908181 
loop_ 
_atom_site_label 
_atom_site_type_symbol 
_atom_site_fract_x 
_atom_site_fract_y 
_atom_site_fract_z 
_atom_site_charge 
C1          C  0.10405265  0.16122424  0.75289541     0.03200
C2          C  0.09491435  0.14495918  0.79193091    -0.13000
C3          C  0.07908141  0.11471896  0.79051894     0.00700
C4          C  0.07075755  0.10063432  0.75025958    -0.11500
C5          C  0.07825642  0.11654438  0.71100081     0.03200
C6          C  0.09526865  0.14685821  0.71246500    -0.10900
H7          H  0.10106795  0.15567442  0.82335273     0.08800
H8          H  0.05944502  0.07716327  0.74952886     0.06300
H9          H  0.10240377  0.15917257  0.68211238     0.06100
C10         C  0.17392162  0.42575952  0.75986441     0.03200
C11         C  0.16166045  0.42835414  0.79868033    -0.13000
C12         C  0.14844450  0.44512645  0.79941537     0.00700
C13         C  0.14610800  0.45822515  0.76080282    -0.11500
C14         C  0.15767880  0.45535720  0.72148177     0.03200
C15         C  0.17257254  0.44007759  0.72170966    -0.10900
H16         H  0.16093527  0.41613320  0.82773288     0.08800
H17         H  0.13345806  0.46888283  0.76088386     0.06300
H18         H  0.18117462  0.43748021  0.69125560     0.06100
C19         C  0.20200959  0.33548949  0.74773171     0.03200
C20         C  0.17948665  0.30641072  0.74880513    -0.13000
C21         C  0.18562306  0.28416120  0.74297610     0.00700
C22         C  0.21440205  0.29130754  0.73582660    -0.11500
C23         C  0.23716362  0.32015942  0.73671517     0.03200
C24         C  0.23083341  0.34218895  0.74337457    -0.10900
H25         H  0.15739675  0.30121635  0.75478427     0.08800
H26         H  0.21919819  0.27417914  0.73070389     0.06300
H27         H  0.24826221  0.36456668  0.74512736     0.06100
C28         C  0.35689280  0.34921845  0.73893664     0.03200
C29         C  0.37091909  0.35605062  0.77993499    -0.13000
C30         C  0.40108953  0.36848645  0.78276355     0.00700
C31         C  0.41742086  0.37451083  0.74456227    -0.11500
C32         C  0.40376488  0.36884190  0.70352320     0.03200
C33         C  0.37348429  0.35546776  0.70075377    -0.10900
H34         H  0.35866826  0.35329129  0.80943861     0.08800
H35         H  0.44096558  0.38585338  0.74666609     0.06300
H36         H  0.36308897  0.35162124  0.66883106     0.06100
Zn37       Zn  0.03403481  0.47355963  0.06752967     1.49700
Zn38       Zn  0.00688808  0.48028532  0.97957245     1.49400
Zn39       Zn  0.07421512  0.99993006  0.98510612     1.49100
Zn40       Zn  0.02635211  0.43243941  0.98787656     1.49500
O41         O  0.03532871  0.47140596  0.00471911    -1.84900
O42         O  0.00041036  0.47709708  0.08639582    -0.74700
O43         O  0.02629500  0.01645821  0.94266819    -0.74500
O44         O  0.10123598  0.02034423  0.03552750    -0.74100
O45         O  0.48159989  0.48372688  0.02492157    -0.74700
O46         O  0.07119574  0.00604220  0.09236540    -0.74300
O47         O  0.07289215  0.02984583  0.94674487    -0.74900
O48         O  0.05880367  0.43459607  0.95208453    -0.74300
O49         O  0.47999297  0.44831181  0.94008200    -0.75100
O50         O  0.09129761  0.48147464  0.94875790    -0.74500
O51         O  0.99095140  0.41385228  0.94846153    -0.74900
O52         O  0.01984685  0.40657851  0.04076981    -0.74800
O53         O  0.02743505  0.43696859  0.09488731    -0.74600
C54         C  0.48152635  0.48093577  0.06635982     0.77200
C55         C  0.05262043  0.03363050  0.93211156     0.77700
C56         C  0.09639043  0.02134114  0.07596022     0.76600
C57         C  0.08272643  0.45547037  0.93801361     0.77000
C58         C  0.47552064  0.42326952  0.93098154     0.78100
C59         C  0.02144905  0.41218414  0.08146178     0.77200
Zn60       Zn  0.05022110  0.47898842  0.43708396     1.49700
Zn61       Zn  0.08663962  0.01238823  0.52078025     1.49400
Zn62       Zn  0.01747375  0.48711559  0.51613643     1.49100
Zn63       Zn  0.04328950  0.44412317  0.52463410     1.49500
O64         O  0.04929019  0.48064841  0.50001133    -1.84100
O65         O  0.08713163  0.01120544  0.41322551    -0.74700
O66         O  0.08018131  0.03934076  0.55648948    -0.74500
O67         O  0.49666444  0.49174113  0.46290365    -0.74100
O68         O  0.11339653  0.03527118  0.47137661    -0.74700
O69         O  0.01870250  0.48322128  0.40931014    -0.74300
O70         O  0.03282127  0.02299961  0.55353810    -0.74900
O71         O  0.00717454  0.42503737  0.56070445    -0.74300
O72         O  0.10751450  0.49829873  0.55996396    -0.75100
O73         O  0.48833419  0.45336767  0.55239609    -0.74500
O74         O  0.07671979  0.45093602  0.56383953    -0.74900
O75         O  0.03909816  0.41589787  0.47799873    -0.74800
O76         O  0.04646172  0.44194428  0.41716857    -0.74600
C77         C  0.11007283  0.03172389  0.43019741     0.77200
C78         C  0.05833537  0.04135610  0.56693518     0.77700
C79         C  0.49976963  0.48901145  0.42226734     0.76600
C80         C  0.48730453  0.43075341  0.56842328     0.77000
C81         C  0.10064195  0.47328528  0.57458077     0.78100
C82         C  0.04173255  0.41883258  0.43660496     0.77200
C83         C  0.22862987  0.10200364  0.24450881     0.03200
C84         C  0.21187317  0.09440215  0.20591900    -0.13000
C85         C  0.18189978  0.08382792  0.20787309     0.00700
C86         C  0.16880765  0.08072180  0.24861811    -0.11500
C87         C  0.18536714  0.08855014  0.28727131     0.03200
C88         C  0.21538642  0.09979105  0.28493478    -0.10900
H89         H  0.22184418  0.09541169  0.17472079     0.08800
H90         H  0.14533138  0.07029133  0.25045790     0.06300
H91         H  0.22817345  0.10528060  0.31485898     0.06100
C92         C  0.40937085  0.02541957  0.24622636     0.03200
C93         C  0.42213164  0.02054708  0.28343087    -0.13000
C94         C  0.43324230  0.50186539  0.28136664     0.00700
C95         C  0.43072591  0.48747715  0.24209738    -0.11500
C96         C  0.41955981  0.49337508  0.20404015     0.03200
C97         C  0.40797936  0.01159537  0.20678048    -0.10900
H98         H  0.42521197  0.03278202  0.31300014     0.08800
H99         H  0.44029871  0.47391626  0.24017530     0.06300
H100        H  0.39976637  0.01666250  0.17738389     0.06100
C101        C  0.38498210  0.11849977  0.24551141     0.03200
C102        C  0.40719635  0.14702567  0.25323062    -0.13000
C103        C  0.40096158  0.16946463  0.25497560     0.00700
C104        C  0.37209176  0.16294113  0.24903012    -0.11500
C105        C  0.34962384  0.13433284  0.24189624     0.03200
C106        C  0.35640362  0.11230818  0.23975249    -0.10900
H107        H  0.42927000  0.15165428  0.25844514     0.08800
H108        H  0.36705867  0.18006733  0.25071782     0.06300
H109        H  0.33931800  0.09012422  0.23404516     0.06100
C110        C  0.98871689  0.29020464  0.26480134     0.03200
C111        C  0.00103341  0.30544658  0.30379173    -0.13000
C112        C  0.01552767  0.33581364  0.30396502     0.00700
C113        C  0.01904924  0.35074555  0.26434069    -0.11500
C114        C  0.00663257  0.33585756  0.22545266     0.03200
C115        C  0.99173606  0.30556869  0.22561397    -0.10900
H116        H  0.99823099  0.29362184  0.33417072     0.08800
H117        H  0.02993488  0.37420607  0.26413532     0.06300
H118        H  0.98102303  0.29399103  0.19593548     0.06100
C119        C  0.44991313  0.21074687  0.23560543    -0.09100
C120        C  0.42478153  0.19978118  0.26142255     0.07100
C121        C  0.42275888  0.21819172  0.29202463    -0.02900
C122        C  0.44441704  0.24737123  0.29368963    -0.07300
C123        C  0.46868152  0.25860465  0.26618083     0.06200
C124        C  0.47190259  0.23982322  0.23813862    -0.02400
Br125      Br  0.00620991  0.25264636  0.20371337    -0.02100
H126        H  0.45220929  0.19680788  0.21268707     0.10100
H127        H  0.44195158  0.26151766  0.31593366     0.08100
Br128      Br  0.39184306  0.20473286  0.33383068    -0.02500
C129        C  0.37796512  0.07240293  0.27652721    -0.09100
C130        C  0.39123142  0.09474003  0.24523721     0.07100
C131        C  0.40960893  0.09367537  0.21369631    -0.02900
C132        C  0.41506090  0.07083653  0.21455555    -0.07300
C133        C  0.40215206  0.04862089  0.24620451     0.06200
C134        C  0.38323182  0.04938449  0.27721064    -0.02400
Br135      Br  0.36293069  0.01896958  0.31958095    -0.02100
H136        H  0.36341123  0.07288839  0.30048510     0.10100
H137        H  0.42960107  0.07049600  0.19043171     0.08100
Br138      Br  0.42652603  0.12199662  0.16750264    -0.02500
C139        C  0.29897368  0.10312553  0.26716994    -0.09100
C140        C  0.31872124  0.12657638  0.24105724     0.07100
C141        C  0.30832809  0.14136691  0.21478640    -0.02900
C142        C  0.27893148  0.13318675  0.21643804    -0.07300
C143        C  0.25944941  0.11000441  0.24312875     0.06200
C144        C  0.26957606  0.09438521  0.26765495    -0.02400
Br145      Br  0.24409503  0.05954718  0.29968183    -0.02100
H146        H  0.30639596  0.09124967  0.28714645     0.10100
H147        H  0.27118368  0.14482545  0.19657453     0.08100
Br148      Br  0.33242987  0.17126395  0.17369308    -0.02500
C149        C  0.05217408  0.37796010  0.34642856    -0.09100
C150        C  0.02459841  0.35271654  0.34506136     0.07100
C151        C  0.00462596  0.34754307  0.37895975    -0.02900
C152        C  0.01187206  0.36835585  0.41141358    -0.07300
C153        C  0.03820805  0.39475416  0.40974446     0.06200
C154        C  0.05885462  0.39914050  0.37785163    -0.02400
Br155      Br  0.09581132  0.43440575  0.37441689    -0.02100
H156        H  0.06782931  0.38218538  0.32094712     0.10100
H157        H  0.99580500  0.36501620  0.43571106     0.08100
Br158      Br  0.46565114  0.31512567  0.37960921    -0.02500
C159        C  0.13086407  0.07215984  0.37694295    -0.09100
C160        C  0.13342300  0.05102170  0.40074152     0.07100
C161        C  0.15564280  0.04536200  0.39086759    -0.02900
C162        C  0.17402141  0.05967963  0.35567484    -0.07300
C163        C  0.17035587  0.07950301  0.32981213     0.06200
C164        C  0.14931736  0.08659562  0.34174189    -0.02400
Br165      Br  0.14445892  0.11513701  0.31032593    -0.02100
H166        H  0.11368007  0.07650962  0.38455176     0.10100
H167        H  0.18985073  0.05375952  0.34663028     0.08100
Br168      Br  0.15950076  0.51596119  0.42155066    -0.02500
C169        C  0.49398042  0.50123294  0.34594628    -0.09100
C170        C  0.48221087  0.49347941  0.38826242     0.07100
C171        C  0.45460322  0.49023007  0.39581483    -0.02900
C172        C  0.43901630  0.49328460  0.36076654    -0.07300
C173        C  0.45057901  0.49995979  0.31824441     0.06200
C174        C  0.47882733  0.50488980  0.31145497    -0.02400
Br175      Br  0.49909836  0.01860180  0.25671947    -0.02100
H176        H  0.01549715  0.00501534  0.33957935     0.10100
H177        H  0.41755972  0.48997232  0.36658556     0.08100
Br178      Br  0.43639418  0.48070541  0.45223697    -0.02500
C179        C  0.99990489  0.38937212  0.15213814    -0.09100
C180        C  0.01518480  0.38968605  0.11489472     0.07100
C181        C  0.02522031  0.36994968  0.11232952    -0.02900
C182        C  0.02112559  0.35143526  0.14794848    -0.07300
C183        C  0.00714919  0.35236956  0.18603439     0.06200
C184        C  0.99564873  0.37088567  0.18731152    -0.02400
Br185      Br  0.97375144  0.37182154  0.23614029    -0.02100
H186        H  0.99145113  0.40392147  0.15415622     0.10100
H187        H  0.02996494  0.33719761  0.14669982     0.08100
Br188      Br  0.04682070  0.36915554  0.06314084    -0.02500
C189        C  0.44118683  0.45778221  0.11893298    -0.09100
C190        C  0.45932265  0.48190994  0.09275349     0.07100
C191        C  0.45894182  0.00772977  0.09744390    -0.02900
C192        C  0.44313008  0.01015187  0.13156273    -0.07300
C193        C  0.42727213  0.48690480  0.16085991     0.06200
C194        C  0.42471754  0.45992113  0.15228870    -0.02400
Br195      Br  0.39993528  0.42576038  0.18608284    -0.02100
H196        H  0.44083234  0.43756107  0.11464693     0.10100
H197        H  0.44536947  0.03108840  0.13739978     0.08100
Br198      Br  0.98267072  0.04133113  0.06197474    -0.02500
C199        C  0.16246275  0.04776724  0.14838585    -0.09100
C200        C  0.16317295  0.07139391  0.16888158     0.07100
C201        C  0.14328590  0.08002416  0.15563827    -0.02900
C202        C  0.12205878  0.06401178  0.12410332    -0.07300
C203        C  0.12068253  0.03970516  0.10510114     0.06200
C204        C  0.14136760  0.03189921  0.11670943    -0.02400
Br205      Br  0.13981317  0.99808507  0.09325535    -0.02100
H206        H  0.17735353  0.04066522  0.15878080     0.10100
H207        H  0.10626942  0.07021434  0.11495340     0.08100
Br208      Br  0.14426729  0.11337959  0.17978811    -0.02500
C209        C  0.43902589  0.37097339  0.64945381    -0.09100
C210        C  0.42168016  0.38169616  0.66436165     0.07100
C211        C  0.42401449  0.40669631  0.64485325    -0.02900
C212        C  0.44447226  0.42132740  0.61215504    -0.07300
C213        C  0.46316078  0.41168338  0.59838071     0.06200
C214        C  0.45946636  0.38543473  0.61638724    -0.02400
Br215      Br  0.98133289  0.36778002  0.59876775    -0.02100
H216        H  0.43710144  0.35161732  0.66437750     0.10100
H217        H  0.44653992  0.44114066  0.59895322     0.08100
Br218      Br  0.40173094  0.42338927  0.66454508    -0.02500
C219        C  0.42890410  0.36585209  0.84653314    -0.09100
C220        C  0.41629935  0.37988509  0.82456304     0.07100
C221        C  0.42069224  0.40627941  0.84035246    -0.02900
C222        C  0.43873145  0.41902034  0.87649592    -0.07300
C223        C  0.45297073  0.40603422  0.89753434     0.06200
C224        C  0.44691196  0.37843929  0.88310793    -0.02400
Br225      Br  0.96234071  0.35657302  0.91068832    -0.02100
H226        H  0.42526614  0.34534817  0.83448889     0.10100
H227        H  0.44251184  0.43990406  0.88684798     0.08100
Br228      Br  0.40444175  0.42697096  0.81143703    -0.02500
C229        C  0.31707173  0.35528727  0.70815328    -0.09100
C230        C  0.32572739  0.33980807  0.73581203     0.07100
C231        C  0.30474330  0.31674773  0.76142493    -0.02900
C232        C  0.27609175  0.31072195  0.76101286    -0.07300
C233        C  0.26756463  0.32676392  0.73438124     0.06200
C234        C  0.28821542  0.34869322  0.70672168    -0.02400
Br235      Br  0.27824169  0.36932494  0.66469555    -0.02100
H236        H  0.33290303  0.37287488  0.68790596     0.10100
H237        H  0.26042405  0.29351602  0.78197452     0.08100
Br238      Br  0.31358633  0.29194512  0.79601422    -0.02500
C239        C  0.13461808  0.44079278  0.64808649    -0.09100
C240        C  0.14875732  0.46271759  0.67936359     0.07100
C241        C  0.15078181  0.48968022  0.67187548    -0.02900
C242        C  0.13639634  0.49329945  0.63589652    -0.07300
C243        C  0.11996657  0.47040371  0.60683864     0.06200
C244        C  0.12049355  0.44445614  0.61192322    -0.02400
Br245      Br  0.10257403  0.41325144  0.57075627    -0.02100
H246        H  0.13328158  0.42003970  0.65287898     0.10100
H247        H  0.13696140  0.51373505  0.63188683     0.08100
Br248      Br  0.17274263  0.52208746  0.70981759    -0.02500
C249        C  0.10547351  0.42302337  0.84744482    -0.09100
C250        C  0.13354349  0.44597350  0.83896029     0.07100
C251        C  0.14590353  0.47038694  0.86593718    -0.02900
C252        C  0.12950615  0.47224773  0.89963535    -0.07300
C253        C  0.10056514  0.45005291  0.90690194     0.06200
C254        C  0.08884818  0.42472563  0.88099188    -0.02400
Br255      Br  0.04980813  0.39250995  0.88631075    -0.02100
H256        H  0.09595725  0.40410464  0.82648280     0.10100
H257        H  0.13924399  0.49171668  0.91936820     0.08100
Br258      Br  0.18474740  0.50197891  0.85678627    -0.02500
C259        C  0.17190841  0.38427138  0.72201958    -0.09100
C260        C  0.18306609  0.40398711  0.75677988     0.07100
C261        C  0.20143279  0.40153529  0.78808717    -0.02900
C262        C  0.20726961  0.37894039  0.78494297    -0.07300
C263        C  0.19547952  0.35899420  0.75058580     0.06200
C264        C  0.17841987  0.36235883  0.71826392    -0.02400
Br265      Br  0.16515484  0.33906615  0.66658656    -0.02100
H266        H  0.15784884  0.38576893  0.69753876     0.10100
H267        H  0.22115474  0.37698247  0.80924621     0.08100
Br268      Br  0.22044652  0.42914084  0.83410112    -0.02500
C269        C  0.09450995  0.10701100  0.64073785    -0.09100
C270        C  0.07157738  0.10101036  0.66894372     0.07100
C271        C  0.04338534  0.07818252  0.65883658    -0.02900
C272        C  0.03913164  0.06005761  0.62356862    -0.07300
C273        C  0.06261565  0.06438578  0.59766131     0.06200
C274        C  0.09028925  0.08917684  0.60513169    -0.02400
Br275      Br  0.12346632  0.10015527  0.56862380    -0.02100
H276        H  0.11618785  0.12486222  0.64763244     0.10100
H277        H  0.01757492  0.04169817  0.61781035     0.08100
Br278      Br  0.01004514  0.07066694  0.69241674    -0.02500
C279        C  0.08726203  0.07013196  0.87945365    -0.09100
C280        C  0.05999451  0.05741904  0.90005467     0.07100
C281        C  0.04007932  0.06619616  0.88660219    -0.02900
C282        C  0.04722130  0.08601664  0.85197331    -0.07300
C283        C  0.07385966  0.09739065  0.83056038     0.06200
C284        C  0.09414298  0.08970539  0.84482304    -0.02400
Br285      Br  0.13066903  0.10371157  0.81587808    -0.02100
H286        H  0.10294903  0.06386811  0.88880363     0.10100
H287        H  0.03159533  0.09197041  0.84084667     0.08100
Br288      Br  0.00277908  0.05223948  0.91312086    -0.02500
C289        C  0.16864839  0.23589336  0.77607676    -0.09100
C290        C  0.16291699  0.25329292  0.74779763     0.07100
C291        C  0.13693578  0.24038490  0.72304480    -0.02900
C292        C  0.11750641  0.21059225  0.72671564    -0.07300
C293        C  0.12378600  0.19302975  0.75380069     0.06200
C294        C  0.14980567  0.20604698  0.77865181    -0.02400
Br295      Br  0.16296659  0.18451139  0.81290128    -0.02100
H296        H  0.18860434  0.24548714  0.79512804     0.10100
H297        H  0.09776983  0.20091378  0.70717231     0.08100
Br298      Br  0.12795797  0.26135319  0.68049908    -0.02500
C299        C  0.10404855  0.66122468  0.75289326     0.03200
C300        C  0.09490972  0.64495942  0.79192850    -0.13000
C301        C  0.07907604  0.61471925  0.79051606     0.00700
C302        C  0.07075187  0.60063496  0.75025655    -0.11500
C303        C  0.07825097  0.61654531  0.71099804     0.03200
C304        C  0.09526398  0.64685905  0.71246263    -0.10900
H305        H  0.10106393  0.65567444  0.82335053     0.08800
H306        H  0.05943924  0.57716398  0.74952550     0.06300
H307        H  0.10239944  0.65917358  0.68211021     0.06100
C308        C  0.17391802  0.92575600  0.75987624     0.03200
C309        C  0.16165519  0.92834912  0.79869134    -0.13000
C310        C  0.14843880  0.94512099  0.79942620     0.00700
C311        C  0.14610332  0.95822062  0.76081391    -0.11500
C312        C  0.15767562  0.95535389  0.72149357     0.03200
C313        C  0.17257002  0.94007499  0.72172190    -0.10900
H314        H  0.16092928  0.91612733  0.82774388     0.08800
H315        H  0.13345328  0.96887813  0.76089444     0.06300
H316        H  0.18117329  0.93747881  0.69126856     0.06100
C317        C  0.20200943  0.83548882  0.74774079     0.03200
C318        C  0.17948658  0.80641005  0.74881100    -0.13000
C319        C  0.18562332  0.78416091  0.74298058     0.00700
C320        C  0.21440266  0.79130764  0.73583330    -0.11500
C321        C  0.23716405  0.82015956  0.73672469     0.03200
C322        C  0.23083344  0.84218866  0.74338553    -0.10900
H323        H  0.15739644  0.80121537  0.75478860     0.08800
H324        H  0.21919913  0.77417954  0.73070957     0.06300
H325        H  0.24826211  0.86456644  0.74514033     0.06100
C326        C  0.35689346  0.84921950  0.73894153     0.03200
C327        C  0.37092069  0.85605151  0.77993909    -0.13000
C328        C  0.40109122  0.86848776  0.78276584     0.00700
C329        C  0.41742169  0.87451254  0.74456355    -0.11500
C330        C  0.40376469  0.86884356  0.70352527     0.03200
C331        C  0.37348405  0.85546921  0.70075760    -0.10900
H332        H  0.35867050  0.85329191  0.80944359     0.08800
H333        H  0.44096650  0.88585539  0.74666604     0.06300
H334        H  0.36308796  0.85162283  0.66883548     0.06100
Zn335      Zn  0.03402229  0.97355613  0.06752827     1.49700
Zn336      Zn  0.00688064  0.98028115  0.97956519     1.49400
Zn337      Zn  0.07422331  0.49993619  0.98510147     1.49100
Zn338      Zn  0.02634195  0.93243378  0.98787902     1.49500
O339        O  0.03531898  0.97140098  0.00471850    -1.84900
O340        O  0.00039586  0.97709185  0.08638708    -0.74700
O341        O  0.02629839  0.51646073  0.94267140    -0.74500
O342        O  0.10124648  0.52035325  0.03551947    -0.74100
O343        O  0.48160093  0.98372702  0.02492326    -0.74700
O344        O  0.07121038  0.50604438  0.09236322    -0.74300
O345        O  0.07289599  0.52984943  0.94674003    -0.74900
O346        O  0.05879447  0.93458941  0.95209033    -0.74300
O347        O  0.47999518  0.94831266  0.94008381    -0.75100
O348        O  0.09128940  0.98146773  0.94876504    -0.74500
O349        O  0.99094270  0.91384643  0.94846021    -0.74900
O350        O  0.01983645  0.90657475  0.04077515    -0.74800
O351        O  0.02742421  0.93696670  0.09488954    -0.74600
C352        C  0.48152735  0.98093627  0.06636157     0.77200
C353        C  0.05262286  0.53363292  0.93210995     0.77700
C354        C  0.09640333  0.52134706  0.07595410     0.76600
C355        C  0.08271801  0.95546337  0.93802104     0.77000
C356        C  0.47552269  0.92327026  0.93098370     0.78100
C357        C  0.02143930  0.91218205  0.08146663     0.77200
Zn358      Zn  0.05023343  0.97898870  0.43708255     1.49700
Zn359      Zn  0.08663212  0.51238719  0.52077812     1.49400
Zn360      Zn  0.01748273  0.98711936  0.51612810     1.49100
Zn361      Zn  0.04329486  0.94412462  0.52463576     1.49500
O362        O  0.04929870  0.98065007  0.50000960    -1.84100
O363        O  0.08711843  0.51120406  0.41322274    -0.74700
O364        O  0.08017537  0.53934135  0.55648622    -0.74500
O365        O  0.49666407  0.99174309  0.46290332    -0.74100
O366        O  0.11338753  0.53526791  0.47137177    -0.74700
O367        O  0.01871394  0.98321752  0.40930082    -0.74300
O368        O  0.03281425  0.52299584  0.55354524    -0.74900
O369        O  0.00717772  0.92504055  0.56070066    -0.74300
O370        O  0.10752042  0.99829861  0.55996720    -0.75100
O371        O  0.48833206  0.95336948  0.55239603    -0.74500
O372        O  0.07672255  0.95093662  0.56384589    -0.74900
O373        O  0.03910450  0.91589769  0.47800400    -0.74800
O374        O  0.04647675  0.94194462  0.41717215    -0.74600
C375        C  0.11006147  0.53172113  0.43019270     0.77200
C376        C  0.05832903  0.54135482  0.56693638     0.77700
C377        C  0.49977008  0.98901421  0.42226702     0.76600
C378        C  0.48730210  0.93075508  0.56842324     0.77000
C379        C  0.10064549  0.97328507  0.57458658     0.78100
C380        C  0.04174347  0.91883220  0.43661073     0.77200
C381        C  0.22863251  0.60200477  0.24452105     0.03200
C382        C  0.21187991  0.59440411  0.20592709    -0.13000
C383        C  0.18190633  0.58382935  0.20787349     0.00700
C384        C  0.16880934  0.58072093  0.24861475    -0.11500
C385        C  0.18536442  0.58854799  0.28727228     0.03200
C386        C  0.21538429  0.59979010  0.28494344    -0.10900
H387        H  0.22185431  0.59541524  0.17473162     0.08800
H388        H  0.14533281  0.57029003  0.25044796     0.06300
H389        H  0.22816827  0.60527961  0.31487091     0.06100
C390        C  0.40937280  0.52542094  0.24622794     0.03200
C391        C  0.42213333  0.52054776  0.28343216    -0.13000
C392        C  0.43324111  0.00186510  0.28136596     0.00700
C393        C  0.43072489  0.98747652  0.24209714    -0.11500
C394        C  0.41955832  0.99337366  0.20403971     0.03200
C395        C  0.40798144  0.51159730  0.20678150    -0.10900
H396        H  0.42521368  0.53278233  0.31300183     0.08800
H397        H  0.44029827  0.97391613  0.24017545     0.06300
H398        H  0.39976865  0.51666489  0.17738518     0.06100
C399        C  0.38498466  0.61850165  0.24552170     0.03200
C400        C  0.40719996  0.64702751  0.25323856    -0.13000
C401        C  0.40096611  0.66946706  0.25498564     0.00700
C402        C  0.37209626  0.66294425  0.24904414    -0.11500
C403        C  0.34962734  0.63433608  0.24191335     0.03200
C404        C  0.35640598  0.61231069  0.23976809    -0.10900
H405        H  0.42927368  0.65165561  0.25844969     0.08800
H406        H  0.36706389  0.68007098  0.25073244     0.06300
H407        H  0.33931946  0.59012685  0.23406303     0.06100
C408        C  0.98871678  0.79020530  0.26480489     0.03200
C409        C  0.00103487  0.80544543  0.30379603    -0.13000
C410        C  0.01553133  0.83581257  0.30397173     0.00700
C411        C  0.01905290  0.85074623  0.26434908    -0.11500
C412        C  0.00663405  0.83585996  0.22546059     0.03200
C413        C  0.99173587  0.80557107  0.22561949    -0.10900
H414        H  0.99823216  0.79361937  0.33417375     0.08800
H415        H  0.02994031  0.87420694  0.26414575     0.06300
H416        H  0.98102154  0.79399477  0.19594077     0.06100
C417        C  0.44991752  0.71074852  0.23561184    -0.09100
C418        C  0.42478684  0.69978346  0.26143098     0.07100
C419        C  0.42276562  0.71819459  0.29203356    -0.02900
C420        C  0.44442392  0.74737402  0.29369673    -0.07300
C421        C  0.46868741  0.75860687  0.26618600     0.06200
C422        C  0.47190734  0.73982485  0.23814350    -0.02400
Br423      Br  0.00620761  0.75264806  0.20371112    -0.02100
H424        H  0.45221268  0.69680905  0.21269308     0.10100
H425        H  0.44195932  0.76152088  0.31594112     0.08100
Br426      Br  0.39185175  0.70473670  0.33384290    -0.02500
C427        C  0.37796737  0.57240378  0.27653374    -0.09100
C428        C  0.39123327  0.59474141  0.24524447     0.07100
C429        C  0.40960993  0.59367693  0.21370174    -0.02900
C430        C  0.41506184  0.57083802  0.21455896    -0.07300
C431        C  0.40215365  0.54862203  0.24620750     0.06200
C432        C  0.38323386  0.54938520  0.27721496    -0.02400
Br433      Br  0.36293300  0.51896954  0.31958432    -0.02100
H434        H  0.36341404  0.57288899  0.30049295     0.10100
H435        H  0.42960155  0.57049777  0.19043394     0.08100
Br436      Br  0.42652593  0.62199847  0.16750822    -0.02500
C437        C  0.29897821  0.60313185  0.26719347    -0.09100
C438        C  0.31872514  0.62658080  0.24107724     0.07100
C439        C  0.30833163  0.64137000  0.21480417    -0.02900
C440        C  0.27893499  0.63318955  0.21645520    -0.07300
C441        C  0.25945306  0.61000822  0.24314767     0.06200
C442        C  0.26958044  0.59439125  0.26767832    -0.02400
Br443      Br  0.24410036  0.55955499  0.29970965    -0.02100
H444        H  0.30640104  0.59125723  0.28717184     0.10100
H445        H  0.27118684  0.64482674  0.19658871     0.08100
Br446      Br  0.33243281  0.67126498  0.17370773    -0.02500
C447        C  0.05218138  0.87795546  0.34643738    -0.09100
C448        C  0.02460417  0.85271398  0.34506936     0.07100
C449        C  0.00463241  0.84754214  0.37896802    -0.02900
C450        C  0.01188042  0.86835522  0.41142196    -0.07300
C451        C  0.03821785  0.89475218  0.40975294     0.06200
C452        C  0.05886409  0.89913611  0.37786096    -0.02400
Br453      Br  0.09582323  0.93439860  0.37442778    -0.02100
H454        H  0.06783619  0.88217928  0.32095577     0.10100
H455        H  0.99581362  0.86501722  0.43571910     0.08100
Br456      Br  0.46565385  0.81512699  0.37960917    -0.02500
C457        C  0.13084996  0.57215203  0.37692912    -0.09100
C458        C  0.13341113  0.55101767  0.40073494     0.07100
C459        C  0.15563444  0.54536145  0.39086940    -0.02900
C460        C  0.17401499  0.55967915  0.35567852    -0.07300
C461        C  0.17034831  0.57949947  0.32980955     0.06200
C462        C  0.14930545  0.58658824  0.34173039    -0.02400
Br463      Br  0.14444472  0.61512581  0.31030684    -0.02100
H464        H  0.11366335  0.57649925  0.38453160     0.10100
H465        H  0.18984741  0.55376168  0.34664079     0.08100
Br466      Br  0.15950639  0.01595731  0.42153984    -0.02500
C467        C  0.49398074  0.00123578  0.34594591    -0.09100
C468        C  0.48221112  0.99348176  0.38826195     0.07100
C469        C  0.45460283  0.99023100  0.39581411    -0.02900
C470        C  0.43901554  0.99328481  0.36076576    -0.07300
C471        C  0.45057832  0.99996045  0.31824375     0.06200
C472        C  0.47882712  0.00489172  0.31145444    -0.02400
Br473      Br  0.49909894  0.51859967  0.25672024    -0.02100
H474        H  0.01549228  0.50502824  0.33959734     0.10100
H475        H  0.41755846  0.98997147  0.36658462     0.08100
Br476      Br  0.43639326  0.98070498  0.45223587    -0.02500
C477        C  0.99990445  0.88937582  0.15215064    -0.09100
C478        C  0.01517861  0.88968615  0.11490216     0.07100
C479        C  0.02521261  0.86994863  0.11233432    -0.02900
C480        C  0.02112124  0.85143598  0.14795429    -0.07300
C481        C  0.00715008  0.85237335  0.18604430     0.06200
C482        C  0.99565194  0.87089136  0.18732538    -0.02400
Br483      Br  0.97376161  0.87183176  0.23616047    -0.02100
H484        H  0.99145211  0.90392612  0.15417140     0.10100
H485        H  0.02995870  0.83719693  0.14670256     0.08100
Br486      Br  0.04680643  0.86915001  0.06313991    -0.02500
C487        C  0.44118736  0.95778194  0.11893373    -0.09100
C488        C  0.45932315  0.98190992  0.09275462     0.07100
C489        C  0.45894212  0.50773018  0.09744321    -0.02900
C490        C  0.44313113  0.51015282  0.13156269    -0.07300
C491        C  0.42727117  0.98690367  0.16085974     0.06200
C492        C  0.42471738  0.95992034  0.15228885    -0.02400
Br493      Br  0.39993544  0.92575940  0.18608284    -0.02100
H494        H  0.44083346  0.93756116  0.11464794     0.10100
H495        H  0.44537114  0.53108968  0.13739997     0.08100
Br496      Br  0.98267857  0.54133418  0.06197595    -0.02500
C497        C  0.16247054  0.54776756  0.14838833    -0.09100
C498        C  0.16318404  0.57139771  0.16887745     0.07100
C499        C  0.14330277  0.58003321  0.15562456    -0.02900
C500        C  0.12207702  0.56402220  0.12408718    -0.07300
C501        C  0.12069641  0.53971143  0.10509292     0.06200
C502        C  0.14137652  0.53190059  0.11670997    -0.02400
Br503      Br  0.13981622  0.49808158  0.09326484    -0.02100
H504        H  0.17735713  0.54066193  0.15879053     0.10100
H505        H  0.10629140  0.57022832  0.11493066     0.08100
Br506      Br  0.14428947  0.61339306  0.17976686    -0.02500
C507        C  0.43902264  0.87097385  0.64945120    -0.09100
C508        C  0.42167893  0.88169795  0.66436286     0.07100
C509        C  0.42401421  0.90669920  0.64485714    -0.02900
C510        C  0.44447141  0.92133033  0.61215817    -0.07300
C511        C  0.46315819  0.91168504  0.59838035     0.06200
C512        C  0.45946233  0.88543509  0.61638366    -0.02400
Br513      Br  0.98131131  0.86776809  0.59871892    -0.02100
H514        H  0.43709724  0.85161678  0.66437255     0.10100
H515        H  0.44654015  0.94114455  0.59895868     0.08100
Br516      Br  0.40173263  0.92339321  0.66455354    -0.02500
C517        C  0.42890726  0.86585376  0.84653363    -0.09100
C518        C  0.41630181  0.87988649  0.82456472     0.07100
C519        C  0.42069408  0.90628033  0.84035522    -0.02900
C520        C  0.43873322  0.91902100  0.87649876    -0.07300
C521        C  0.45297305  0.90603514  0.89753618     0.06200
C522        C  0.44691508  0.87844072  0.88310849    -0.02400
Br523      Br  0.96235201  0.85657713  0.91065570    -0.02100
H524        H  0.42526973  0.84535013  0.83448847     0.10100
H525        H  0.44251303  0.93990441  0.88685185     0.08100
Br526      Br  0.40444265  0.92697152  0.81144140    -0.02500
C527        C  0.31707197  0.85528874  0.70816178    -0.09100
C528        C  0.32572803  0.83980919  0.73581893     0.07100
C529        C  0.30474437  0.81674855  0.76143193    -0.02900
C530        C  0.27609270  0.81072248  0.76102094    -0.07300
C531        C  0.26756518  0.82676463  0.73439053     0.06200
C532        C  0.28821562  0.84869452  0.70673137    -0.02400
Br533      Br  0.27824138  0.86932683  0.66470713    -0.02100
H534        H  0.33290295  0.87287668  0.68791467     0.10100
H535        H  0.26042521  0.79351615  0.78198223     0.08100
Br536      Br  0.31358813  0.79194592  0.79601976    -0.02500
C537        C  0.13461609  0.94078998  0.64809778    -0.09100
C538        C  0.14875520  0.96271465  0.67937495     0.07100
C539        C  0.15078118  0.98967784  0.67188588    -0.02900
C540        C  0.13639766  0.99329790  0.63590511    -0.07300
C541        C  0.11996823  0.97040250  0.60684671     0.06200
C542        C  0.12049332  0.94445404  0.61193297    -0.02400
Br543      Br  0.10257345  0.91324918  0.57076628    -0.02100
H544        H  0.13327841  0.92003592  0.65289141     0.10100
H545        H  0.13696391  0.01373454  0.63189420     0.08100
Br546      Br  0.17274145  0.02208449  0.70982916    -0.02500
C547        C  0.10546732  0.92301683  0.84745483    -0.09100
C548        C  0.13353707  0.94596731  0.83897067     0.07100
C549        C  0.14589657  0.97038046  0.86594814    -0.02900
C550        C  0.12949854  0.97224066  0.89964560    -0.07300
C551        C  0.10055755  0.95004575  0.90691131     0.06200
C552        C  0.08884139  0.92471841  0.88100146    -0.02400
Br553      Br  0.04980201  0.89250176  0.88632072    -0.02100
H554        H  0.09595128  0.90409745  0.82649199     0.10100
H555        H  0.13923626  0.99171022  0.91937930     0.08100
Br556      Br  0.18474052  0.00197266  0.85679879    -0.02500
C557        C  0.17190778  0.88427010  0.72202904    -0.09100
C558        C  0.18306335  0.90398433  0.75679134     0.07100
C559        C  0.20142911  0.90153194  0.78809979    -0.02900
C560        C  0.20726689  0.87893777  0.78495470    -0.07300
C561        C  0.19547888  0.85899308  0.75059544     0.06200
C562        C  0.17842044  0.86235851  0.71827235    -0.02400
Br563      Br  0.16515893  0.83906847  0.66659212    -0.02100
H564        H  0.15784890  0.88576816  0.69754707     0.10100
H565        H  0.22115122  0.87697923  0.80925901     0.08100
Br566      Br  0.22044031  0.92913583  0.83411654    -0.02500
C567        C  0.09450362  0.60701232  0.64073381    -0.09100
C568        C  0.07157150  0.60101139  0.66894092     0.07100
C569        C  0.04337956  0.57818280  0.65883548    -0.02900
C570        C  0.03912579  0.56005707  0.62356889    -0.07300
C571        C  0.06260950  0.56438529  0.59766085     0.06200
C572        C  0.09028270  0.58917746  0.60512850    -0.02400
Br573      Br  0.12345878  0.60015656  0.56861795    -0.02100
H574        H  0.11618144  0.62486426  0.64762688     0.10100
H575        H  0.01756917  0.54169698  0.61781230     0.08100
Br576      Br  0.01003955  0.57066706  0.69241633    -0.02500
C577        C  0.08726088  0.57013335  0.87944784    -0.09100
C578        C  0.05999421  0.55742003  0.90005150     0.07100
C579        C  0.04007753  0.56619561  0.88660050    -0.02900
C580        C  0.04721775  0.58601578  0.85197155    -0.07300
C581        C  0.07385558  0.59739065  0.83055677     0.06200
C582        C  0.09413987  0.58970607  0.84481687    -0.02400
Br583      Br  0.13066448  0.60371189  0.81586765    -0.02100
H584        H  0.10294882  0.56387041  0.88879613     0.10100
H585        H  0.03159084  0.59196869  0.84084638     0.08100
Br586      Br  0.00277748  0.55223702  0.91312092    -0.02500
C587        C  0.16864702  0.73589163  0.77607663    -0.09100
C588        C  0.16291689  0.75329255  0.74779862     0.07100
C589        C  0.13693602  0.74038609  0.72304492    -0.02900
C590        C  0.11750542  0.71059366  0.72671452    -0.07300
C591        C  0.12378347  0.69302986  0.75379908     0.06200
C592        C  0.14980308  0.70604546  0.77865036    -0.02400
Br593      Br  0.16296220  0.68450795  0.81289875    -0.02100
H594        H  0.18860262  0.74548416  0.79512848     0.10100
H595        H  0.09776903  0.70091643  0.70717089     0.08100
Br596      Br  0.12796011  0.76135614  0.68049978    -0.02500
C597        C  0.60407238  0.16123438  0.75296035     0.03200
C598        C  0.59492960  0.14496266  0.79198895    -0.13000
C599        C  0.57909589  0.11472313  0.79056421     0.00700
C600        C  0.57077391  0.10064534  0.75029945    -0.11500
C601        C  0.57827755  0.11656246  0.71104750     0.03200
C602        C  0.59529188  0.14687570  0.71252400    -0.10900
H603        H  0.60107966  0.15567211  0.82341532     0.08800
H604        H  0.55945897  0.07717441  0.74955903     0.06300
H605        H  0.60243105  0.15919523  0.68217609     0.06100
C606        C  0.67391010  0.42575305  0.75993707     0.03200
C607        C  0.66163557  0.42833461  0.79874808    -0.13000
C608        C  0.64841467  0.44510233  0.79948345     0.00700
C609        C  0.64608795  0.45821096  0.76087475    -0.11500
C610        C  0.65767125  0.45535518  0.72155769     0.03200
C611        C  0.67256682  0.44007725  0.72178584    -0.10900
H612        H  0.66090662  0.41610908  0.82779676     0.08800
H613        H  0.63343808  0.46886874  0.76095439     0.06300
H614        H  0.68117843  0.43748915  0.69133431     0.06100
C615        C  0.70202604  0.33550168  0.74784010     0.03200
C616        C  0.67950276  0.30642289  0.74891289    -0.13000
C617        C  0.68564014  0.28417283  0.74309681     0.00700
C618        C  0.71442023  0.29131875  0.73596208    -0.11500
C619        C  0.73718120  0.32017035  0.73685113     0.03200
C620        C  0.73085058  0.34220080  0.74349691    -0.10900
H621        H  0.65741166  0.30122909  0.75487972     0.08800
H622        H  0.71921760  0.27419037  0.73084710     0.06300
H623        H  0.74827922  0.36457854  0.74524716     0.06100
C624        C  0.85690408  0.34921292  0.73906213     0.03200
C625        C  0.87093646  0.35605957  0.78005485    -0.13000
C626        C  0.90110646  0.36849484  0.78287413     0.00700
C627        C  0.91743270  0.37450800  0.74466971    -0.11500
C628        C  0.90377081  0.36882500  0.70363434     0.03200
C629        C  0.87348925  0.35544730  0.70087510    -0.10900
H630        H  0.85869077  0.35331247  0.80956000     0.08800
H631        H  0.94097775  0.38585205  0.74676687     0.06300
H632        H  0.86308831  0.35158806  0.66895567     0.06100
Zn633      Zn  0.53394330  0.47353982  0.06751358     1.49700
Zn634      Zn  0.50682676  0.48024743  0.97951714     1.49400
Zn635      Zn  0.57416388  0.99989293  0.98513616     1.49100
Zn636      Zn  0.52627926  0.43239831  0.98788961     1.49500
O637        O  0.53525628  0.47136904  0.00470994    -1.84900
O638        O  0.50030480  0.47706386  0.08632774    -0.74700
O639        O  0.52626437  0.01643092  0.94264347    -0.74500
O640        O  0.60116961  0.02030151  0.03557744    -0.74100
O641        O  0.98168803  0.48376897  0.02501550    -0.74700
O642        O  0.57110030  0.00604135  0.09237384    -0.74300
O643        O  0.57286066  0.02981809  0.94677313    -0.74900
O644        O  0.55873968  0.43455031  0.95211733    -0.74300
O645        O  0.98002947  0.44834405  0.94016884    -0.75100
O646        O  0.59124231  0.48142721  0.94881181    -0.74500
O647        O  0.49088367  0.41380270  0.94845360    -0.74900
O648        O  0.51977434  0.40655637  0.04081101    -0.74800
O649        O  0.52735821  0.43696398  0.09490076    -0.74600
C650        C  0.98162751  0.48097421  0.06645188     0.77200
C651        C  0.55259550  0.03360631  0.93211907     0.77700
C652        C  0.59630563  0.02132206  0.07599570     0.76600
C653        C  0.58266984  0.45542329  0.93806354     0.77000
C654        C  0.97556621  0.42330908  0.93104059     0.78100
C655        C  0.52137962  0.41217709  0.08149838     0.77200
Zn656      Zn  0.55030551  0.47903310  0.43710404     1.49700
Zn657      Zn  0.58669025  0.01244084  0.52081611     1.49400
Zn658      Zn  0.51753515  0.48717419  0.51611097     1.49100
Zn659      Zn  0.54334366  0.44418091  0.52467323     1.49500
O660        O  0.54935501  0.48070279  0.50002814    -1.84100
O661        O  0.58719772  0.01126623  0.41326298    -0.74700
O662        O  0.58021611  0.03937704  0.55653426    -0.74500
O663        O  0.99658709  0.49169929  0.46296161    -0.74100
O664        O  0.61344543  0.03534379  0.47142006    -0.74700
O665        O  0.51877314  0.48322570  0.40928379    -0.74300
O666        O  0.53286097  0.02305664  0.55352365    -0.74900
O667        O  0.50721690  0.42509974  0.56071019    -0.74300
O668        O  0.60757720  0.49835038  0.55999902    -0.75100
O669        O  0.98829316  0.45330966  0.55244332    -0.74500
O670        O  0.57676050  0.45099298  0.56390234    -0.74900
O671        O  0.53916404  0.41594883  0.47806208    -0.74800
O672        O  0.54657840  0.44199733  0.41722102    -0.74600
C673        C  0.61012809  0.03179613  0.43024016     0.77200
C674        C  0.55837098  0.04140073  0.56695323     0.77700
C675        C  0.99970026  0.48900222  0.42231703     0.76600
C676        C  0.98726949  0.43069500  0.56845740     0.77000
C677        C  0.60068999  0.47333643  0.57463329     0.78100
C678        C  0.54182821  0.41888307  0.43667192     0.77200
C679        C  0.72858738  0.10206379  0.24444485     0.03200
C680        C  0.71180738  0.09445577  0.20587835    -0.13000
C681        C  0.68183530  0.08388803  0.20787322     0.00700
C682        C  0.66877150  0.08080317  0.24863846    -0.11500
C683        C  0.68535614  0.08864057  0.28726762     0.03200
C684        C  0.71537179  0.09987161  0.28488827    -0.10900
H685        H  0.72175791  0.09544809  0.17466837     0.08800
H686        H  0.64529689  0.07037452  0.25051614     0.06300
H687        H  0.72817615  0.10536084  0.31479551     0.06100
C688        C  0.90931994  0.02539370  0.24619771     0.03200
C689        C  0.92206924  0.02053428  0.28342966    -0.13000
C690        C  0.93319752  0.50187932  0.28140738     0.00700
C691        C  0.93071271  0.48748871  0.24215334    -0.11500
C692        C  0.91956561  0.49337433  0.20406449     0.03200
C693        C  0.90796221  0.01157380  0.20676236    -0.10900
H694        H  0.92512598  0.03276877  0.31299134     0.08800
H695        H  0.94030313  0.47394189  0.24026878     0.06300
H696        H  0.89976132  0.01663451  0.17734625     0.06100
C697        C  0.88490208  0.11845623  0.24540160     0.03200
C698        C  0.90712059  0.14697784  0.25313995    -0.13000
C699        C  0.90089659  0.16942427  0.25488259     0.00700
C700        C  0.87203137  0.16291170  0.24892083    -0.11500
C701        C  0.84955754  0.13430769  0.24177282     0.03200
C702        C  0.85632779  0.11227586  0.23962785    -0.10900
H703        H  0.92918999  0.15159747  0.25837034     0.08800
H704        H  0.86700600  0.18004319  0.25060734     0.06300
H705        H  0.83923802  0.09009538  0.23390952     0.06100
C706        C  0.48874949  0.29025401  0.26487728     0.03200
C707        C  0.50107953  0.30549312  0.30386422    -0.13000
C708        C  0.51557302  0.33585966  0.30404234     0.00700
C709        C  0.51907709  0.35079482  0.26442624    -0.11500
C710        C  0.50664440  0.33590863  0.22554234     0.03200
C711        C  0.49175049  0.30561988  0.22569924    -0.10900
H712        H  0.49828950  0.29366691  0.33423803     0.08800
H713        H  0.52996487  0.37425560  0.26422636     0.06300
H714        H  0.48102777  0.29404320  0.19602490     0.06100
C715        C  0.94986477  0.21069329  0.23554548    -0.09100
C716        C  0.92472404  0.19973745  0.26133985     0.07100
C717        C  0.92270041  0.21815521  0.29192727    -0.02900
C718        C  0.94436617  0.24733213  0.29359553    -0.07300
C719        C  0.96864009  0.25855607  0.26610722     0.06200
C720        C  0.97186208  0.23976651  0.23808442    -0.02400
Br721      Br  0.50623884  0.25271895  0.20373195    -0.02100
H722        H  0.95216253  0.19674930  0.21263929     0.10100
H723        H  0.94189943  0.26148419  0.31582578     0.08100
Br724      Br  0.89177353  0.20471032  0.33371130    -0.02500
C725        C  0.87785246  0.07234014  0.27639520    -0.09100
C726        C  0.89114396  0.09469039  0.24512985     0.07100
C727        C  0.90955209  0.09364083  0.21362853    -0.02900
C728        C  0.91501212  0.07080719  0.21450849    -0.07300
C729        C  0.90208298  0.04858258  0.24613971     0.06200
C730        C  0.88312855  0.04932760  0.27709939    -0.02400
Br731      Br  0.86279943  0.01889684  0.31943583    -0.02100
H732        H  0.86327593  0.07281338  0.30032289     0.10100
H733        H  0.92957719  0.07047944  0.19041817     0.08100
Br734      Br  0.92650649  0.12197855  0.16746313    -0.02500
C735        C  0.79890152  0.10311218  0.26703237    -0.09100
C736        C  0.81865788  0.12656343  0.24092873     0.07100
C737        C  0.80827734  0.14137257  0.21467434    -0.02900
C738        C  0.77888632  0.13321330  0.21633966    -0.07300
C739        C  0.75939764  0.11003473  0.24302935     0.06200
C740        C  0.76950954  0.09439382  0.26753194    -0.02400
Br741      Br  0.74401392  0.05955886  0.29955359    -0.02100
H742        H  0.80631284  0.09122181  0.28699629     0.10100
H743        H  0.77114880  0.14486761  0.19649233     0.08100
Br744      Br  0.83238904  0.17127095  0.17358981    -0.02500
C745        C  0.55224378  0.37799137  0.34650246    -0.09100
C746        C  0.52466110  0.35275738  0.34514108     0.07100
C747        C  0.50469812  0.34759013  0.37905049    -0.02900
C748        C  0.51195820  0.36840393  0.41150628    -0.07300
C749        C  0.53829992  0.39479648  0.40982926     0.06200
C750        C  0.55894010  0.39917206  0.37793151    -0.02400
Br751      Br  0.59590834  0.43442367  0.37449736    -0.02100
H752        H  0.56789163  0.38221000  0.32101209     0.10100
H753        H  0.49589623  0.36507192  0.43580839     0.08100
Br754      Br  0.96558460  0.31506880  0.37950882    -0.02500
C755        C  0.63092018  0.07226393  0.37703923    -0.09100
C756        C  0.63347384  0.05110535  0.40078768     0.07100
C757        C  0.65567317  0.04542900  0.39084907    -0.02900
C758        C  0.67403578  0.05975144  0.35564396    -0.07300
C759        C  0.67037215  0.07959367  0.32982836     0.06200
C760        C  0.64935547  0.08670160  0.34182031    -0.02400
Br761      Br  0.64449904  0.11526133  0.31045810    -0.02100
H762        H  0.61374973  0.07662424  0.38469471     0.10100
H763        H  0.68984741  0.05381892  0.34654992     0.08100
Br764      Br  0.65952613  0.51599924  0.42143141    -0.02500
C765        C  0.99393638  0.50127713  0.34601980    -0.09100
C766        C  0.98215537  0.49350364  0.38832667     0.07100
C767        C  0.95455146  0.49026462  0.39587698    -0.02900
C768        C  0.93896885  0.49332390  0.36082473    -0.07300
C769        C  0.95053705  0.50000131  0.31830555     0.06200
C770        C  0.97879141  0.50494480  0.31152935    -0.02400
Br771      Br  0.99907793  0.01866003  0.25679146    -0.02100
H772        H  0.51553546  0.00498505  0.33951922     0.10100
H773        H  0.91751063  0.49000940  0.36663692     0.08100
Br774      Br  0.93634533  0.48075388  0.45230086    -0.02500
C775        C  0.49989216  0.38941092  0.15222596    -0.09100
C776        C  0.51513662  0.38969703  0.11495477     0.07100
C777        C  0.52516431  0.36995451  0.11238549    -0.02900
C778        C  0.52109281  0.35145865  0.14801947    -0.07300
C779        C  0.50715043  0.35241874  0.18612791     0.06200
C780        C  0.49566187  0.37094474  0.18741745    -0.02400
Br781      Br  0.47380986  0.37191758  0.23628153    -0.02100
H782        H  0.49144564  0.40396596  0.15425113     0.10100
H783        H  0.52992272  0.33721328  0.14676136     0.08100
Br784      Br  0.54672432  0.36912552  0.06316722    -0.02500
C785        C  0.94130195  0.45781497  0.11905181    -0.09100
C786        C  0.95942732  0.48194252  0.09286471     0.07100
C787        C  0.95900191  0.00774243  0.09751201    -0.02900
C788        C  0.94316674  0.01015236  0.13160681    -0.07300
C789        C  0.92731997  0.48691098  0.16091129     0.06200
C790        C  0.92480340  0.45993943  0.15237468    -0.02400
Br791      Br  0.90002468  0.42577308  0.18616108    -0.02100
H792        H  0.94096932  0.43760301  0.11478685     0.10100
H793        H  0.94538243  0.03108098  0.13742320     0.08100
Br794      Br  0.48262669  0.04131942  0.06191780    -0.02500
C795        C  0.66240878  0.04782545  0.14838362    -0.09100
C796        C  0.66308211  0.07142579  0.16891004     0.07100
C797        C  0.64314796  0.08000621  0.15571333    -0.02900
C798        C  0.62191872  0.06397349  0.12419117    -0.07300
C799        C  0.62058652  0.03969754  0.10515002     0.06200
C800        C  0.64131302  0.03193913  0.11671747    -0.02400
Br801      Br  0.63981830  0.99816234  0.09322527    -0.02100
H802        H  0.67733354  0.04075844  0.15874271     0.10100
H803        H  0.60609806  0.07014064  0.11507261     0.08100
Br804      Br  0.64407230  0.11332670  0.17989349    -0.02500
C805        C  0.93905316  0.37096146  0.64959990    -0.09100
C806        C  0.92168015  0.38166466  0.66446186     0.07100
C807        C  0.92398148  0.40663551  0.64489507    -0.02900
C808        C  0.94442780  0.42125415  0.61217820    -0.07300
C809        C  0.96314114  0.41163041  0.59844436     0.06200
C810        C  0.95948542  0.38541246  0.61651889    -0.02400
Br811      Br  0.48126484  0.36776910  0.59854583    -0.02100
H812        H  0.93715720  0.35163005  0.66457211     0.10100
H813        H  0.94646600  0.44104408  0.59892780     0.08100
Br814      Br  0.90167188  0.42331334  0.66453122    -0.02500
C815        C  0.92888609  0.36585443  0.84668490    -0.09100
C816        C  0.91632096  0.37990772  0.82466375     0.07100
C817        C  0.92075463  0.40632969  0.84039515    -0.02900
C818        C  0.93880106  0.41907944  0.87652775    -0.07300
C819        C  0.95300421  0.40607212  0.89761304     0.06200
C820        C  0.94689920  0.37844973  0.88325125    -0.02400
Br821      Br  0.46241964  0.35659472  0.91045231    -0.02100
H822        H  0.92521248  0.34532725  0.83468840     0.10100
H823        H  0.94261716  0.43998490  0.88683176     0.08100
Br824      Br  0.90454588  0.42703974  0.81141746    -0.02500
C825        C  0.81708430  0.35528094  0.70827503    -0.09100
C826        C  0.82573982  0.33980649  0.73594437     0.07100
C827        C  0.80475783  0.31675748  0.76157646    -0.02900
C828        C  0.77610808  0.31073685  0.76116785    -0.07300
C829        C  0.76758135  0.32677351  0.73452296     0.06200
C830        C  0.78822996  0.34869254  0.70684887    -0.02400
Br831      Br  0.77825510  0.36931669  0.66481033    -0.02100
H832        H  0.83291417  0.37286047  0.68801500     0.10100
H833        H  0.76044121  0.29353864  0.78214054     0.08100
Br834      Br  0.81360104  0.29196347  0.79618841    -0.02500
C835        C  0.63462971  0.44081330  0.64814803    -0.09100
C836        C  0.64876443  0.46272969  0.67943823     0.07100
C837        C  0.65080037  0.48969825  0.67195784    -0.02900
C838        C  0.63643074  0.49333236  0.63596985    -0.07300
C839        C  0.62000485  0.47044478  0.60689777     0.06200
C840        C  0.62052008  0.44449083  0.61197780    -0.02400
Br841      Br  0.60260168  0.41329504  0.57079555    -0.02100
H842        H  0.63328485  0.42005646  0.65293495     0.10100
H843        H  0.63700334  0.51377139  0.63196457     0.08100
Br844      Br  0.67275553  0.52209306  0.70992349    -0.02500
C845        C  0.60543897  0.42298549  0.84750728    -0.09100
C846        C  0.63350678  0.44594141  0.83902642     0.07100
C847        C  0.64586044  0.47035156  0.86600970    -0.02900
C848        C  0.62945729  0.47220611  0.89970479    -0.07300
C849        C  0.60051667  0.45000730  0.90696410     0.06200
C850        C  0.58880859  0.42468057  0.88105406    -0.02400
Br851      Br  0.54977584  0.39245357  0.88637725    -0.02100
H852        H  0.59592903  0.40406808  0.82654479     0.10100
H853        H  0.63918989  0.49167330  0.91943925     0.08100
Br854      Br  0.68470425  0.50194735  0.85687330    -0.02500
C855        C  0.67192696  0.38428039  0.72208589    -0.09100
C856        C  0.68306794  0.40399067  0.75685435     0.07100
C857        C  0.70142944  0.40154122  0.78817452    -0.02900
C858        C  0.70727271  0.37895029  0.78503963    -0.07300
C859        C  0.69549521  0.35900648  0.75067828     0.06200
C860        C  0.67844553  0.36237203  0.71833968    -0.02400
Br861      Br  0.66520281  0.33908455  0.66665576    -0.02100
H862        H  0.65787352  0.38577759  0.69759337     0.10100
H863        H  0.72115195  0.37699286  0.80935455     0.08100
Br864      Br  0.72042723  0.42914513  0.83419538    -0.02500
C865        C  0.59454113  0.10703653  0.64079064    -0.09100
C866        C  0.57160344  0.10103646  0.66898436     0.07100
C867        C  0.54341088  0.07821622  0.65885947    -0.02900
C868        C  0.53916000  0.06009839  0.62358226    -0.07300
C869        C  0.56264812  0.06442571  0.59768613     0.06200
C870        C  0.59032408  0.08920893  0.60517782    -0.02400
Br871      Br  0.62351071  0.10018392  0.56869341    -0.02100
H872        H  0.61621978  0.12488136  0.64770067     0.10100
H873        H  0.51760246  0.04174408  0.61780903     0.08100
Br874      Br  0.51006711  0.07070129  0.69242923    -0.02500
C875        C  0.58725081  0.07010712  0.87947530    -0.09100
C876        C  0.55998379  0.05740346  0.90007540     0.07100
C877        C  0.54008074  0.06619859  0.88663576    -0.02900
C878        C  0.54723145  0.08602512  0.85201447    -0.07300
C879        C  0.57386750  0.09738841  0.83059890     0.06200
C880        C  0.59414144  0.08968850  0.84485363    -0.02400
Br881      Br  0.63066779  0.10368852  0.81591236    -0.02100
H882        H  0.60292880  0.06382994  0.88881883     0.10100
H883        H  0.53161406  0.09199247  0.84089607     0.08100
Br884      Br  0.50278766  0.05226142  0.91316763    -0.02500
C885        C  0.66866005  0.23590025  0.77618457    -0.09100
C886        C  0.66293298  0.25330417  0.74790777     0.07100
C887        C  0.63695753  0.24039919  0.72314114    -0.02900
C888        C  0.61752886  0.21060590  0.72679812    -0.07300
C889        C  0.62380483  0.19303942  0.75387966     0.06200
C890        C  0.64981952  0.20605289  0.77874258    -0.02400
Br891      Br  0.66297807  0.18451133  0.81298284    -0.02100
H892        H  0.68861202  0.24549133  0.79524513     0.10100
H893        H  0.59779635  0.20093022  0.70724573     0.08100
Br894      Br  0.62798819  0.26137215  0.68059207    -0.02500
C895        C  0.60407031  0.66123408  0.75295703     0.03200
C896        C  0.59492721  0.64496238  0.79198568    -0.13000
C897        C  0.57909345  0.61472282  0.79056100     0.00700
C898        C  0.57077191  0.60064503  0.75029623    -0.11500
C899        C  0.57827605  0.61656205  0.71104422     0.03200
C900        C  0.59529024  0.64687534  0.71252064    -0.10900
H901        H  0.60107721  0.65567189  0.82341205     0.08800
H902        H  0.55945713  0.57717407  0.74955591     0.06300
H903        H  0.60242976  0.65919479  0.68217285     0.06100
C904        C  0.67390937  0.92575322  0.75993681     0.03200
C905        C  0.66163543  0.92833525  0.79874797    -0.13000
C906        C  0.64841531  0.94510363  0.79948405     0.00700
C907        C  0.64608870  0.95821249  0.76087558    -0.11500
C908        C  0.65767119  0.95535615  0.72155817     0.03200
C909        C  0.67256615  0.94007756  0.72178555    -0.10900
H910        H  0.66090629  0.91610917  0.82779737     0.08800
H911        H  0.63343918  0.96887077  0.76095571     0.06300
H912        H  0.68117692  0.93748914  0.69133462     0.06100
C913        C  0.70202451  0.83550134  0.74783714     0.03200
C914        C  0.67950139  0.80642250  0.74891029    -0.13000
C915        C  0.68563883  0.78417257  0.74309291     0.00700
C916        C  0.71441887  0.79131872  0.73595653    -0.11500
C917        C  0.73717976  0.82017048  0.73684475     0.03200
C918        C  0.73084899  0.84220067  0.74349214    -0.10900
H919        H  0.65741049  0.80122858  0.75487829     0.08800
H920        H  0.71921621  0.77419045  0.73084049     0.06300
H921        H  0.74827763  0.86457863  0.74524210     0.06100
C922        C  0.85690352  0.84921511  0.73904579     0.03200
C923        C  0.87093656  0.85606053  0.78003806    -0.13000
C924        C  0.90110661  0.86849554  0.78285617     0.00700
C925        C  0.91743216  0.87450894  0.74465098    -0.11500
C926        C  0.90376959  0.86882700  0.70361618     0.03200
C927        C  0.87348813  0.85545058  0.70085793    -0.10900
H928        H  0.85869134  0.85331266  0.80954391     0.08800
H929        H  0.94097713  0.88585243  0.74674716     0.06300
H930        H  0.86308682  0.85159275  0.66893874     0.06100
Zn931      Zn  0.53394413  0.97354006  0.06751626     1.49700
Zn932      Zn  0.50682836  0.98024801  0.97951947     1.49400
Zn933      Zn  0.57416278  0.49989277  0.98513315     1.49100
Zn934      Zn  0.52628076  0.93239872  0.98789245     1.49500
O935        O  0.53525746  0.97136933  0.00471272    -1.84900
O936        O  0.50030594  0.97706482  0.08633000    -0.74700
O937        O  0.52626248  0.51643013  0.94264053    -0.74500
O938        O  0.60116823  0.52030378  0.03557427    -0.74100
O939        O  0.98167624  0.98376302  0.02500311    -0.74700
O940        O  0.57109890  0.50604236  0.09237069    -0.74300
O941        O  0.57285867  0.52981668  0.94676793    -0.74900
O942        O  0.55874113  0.93455081  0.95211982    -0.74300
O943        O  0.98002611  0.94834130  0.94015572    -0.75100
O944        O  0.59124278  0.98142789  0.94881295    -0.74500
O945        O  0.49088529  0.91380317  0.94845647    -0.74900
O946        O  0.51977598  0.90655677  0.04081375    -0.74800
O947        O  0.52735830  0.93696396  0.09490336    -0.74600
C948        C  0.98161354  0.98096811  0.06643969     0.77200
C949        C  0.55259343  0.53360506  0.93211472     0.77700
C950        C  0.59630397  0.52132453  0.07599240     0.76600
C951        C  0.58267076  0.95542400  0.93806504     0.77000
C952        C  0.97556142  0.92330526  0.93103119     0.78100
C953        C  0.52138054  0.91217730  0.08150111     0.77200
Zn954      Zn  0.55030543  0.97903518  0.43710575     1.49700
Zn955      Zn  0.58669158  0.51243989  0.52081329     1.49400
Zn956      Zn  0.51753392  0.98717601  0.51611157     1.49100
Zn957      Zn  0.54334175  0.94418226  0.52467516     1.49500
O958        O  0.54935379  0.98070432  0.50002981    -1.84100
O959        O  0.58719617  0.51126561  0.41325948    -0.74700
O960        O  0.58021746  0.53937565  0.55653304    -0.74500
O961        O  0.99659950  0.99170086  0.46294797    -0.74100
O962        O  0.61344466  0.53534398  0.47141557    -0.74700
O963        O  0.51877418  0.98322917  0.40928381    -0.74300
O964        O  0.53286225  0.52305479  0.55352288    -0.74900
O965        O  0.50721450  0.92510134  0.56071084    -0.74300
O966        O  0.60757455  0.99835091  0.56000324    -0.75100
O967        O  0.98829799  0.95331378  0.55243078    -0.74500
O968        O  0.57675792  0.95099353  0.56390521    -0.74900
O969        O  0.53916279  0.91595044  0.47806427    -0.74800
O970        O  0.54657759  0.94199909  0.41722326    -0.74600
C971        C  0.61012617  0.53179659  0.43023568     0.77200
C972        C  0.55837221  0.54139907  0.56695234     0.77700
C973        C  0.99971147  0.98899908  0.42230459     0.76600
C974        C  0.98727223  0.93069869  0.56844700     0.77000
C975        C  0.60068726  0.97333683  0.57463690     0.78100
C976        C  0.54182745  0.91888487  0.43667421     0.77200
C977        C  0.72858358  0.60207657  0.24444132     0.03200
C978        C  0.71180382  0.59446828  0.20587459    -0.13000
C979        C  0.68183155  0.58389974  0.20786871     0.00700
C980        C  0.66876732  0.58081469  0.24863367    -0.11500
C981        C  0.68535159  0.58865191  0.28726323     0.03200
C982        C  0.71536751  0.59988403  0.28488444    -0.10900
H983        H  0.72175468  0.59546038  0.17466476     0.08800
H984        H  0.64529256  0.57038495  0.25051092     0.06300
H985        H  0.72817147  0.60537289  0.31479170     0.06100
C986        C  0.90931770  0.52540021  0.24619139     0.03200
C987        C  0.92206339  0.52054215  0.28342928    -0.13000
C988        C  0.93320029  0.00186911  0.28140034     0.00700
C989        C  0.93071001  0.98747850  0.24214416    -0.11500
C990        C  0.91955924  0.99336555  0.20406069     0.03200
C991        C  0.90796658  0.51158130  0.20675802    -0.10900
H992        H  0.92511511  0.53277609  0.31298972     0.08800
H993        H  0.94029830  0.97393000  0.24025326     0.06300
H994        H  0.89976858  0.51664127  0.17733803     0.06100
C995        C  0.88489438  0.61845933  0.24538363     0.03200
C996        C  0.90711387  0.64698009  0.25312550    -0.13000
C997        C  0.90089157  0.66942753  0.25487247     0.00700
C998        C  0.87202695  0.66291697  0.24891197    -0.11500
C999        C  0.84955196  0.63431386  0.24176164     0.03200
C1000       C  0.85632046  0.61228093  0.23961203    -0.10900
H1001       H  0.92918266  0.65159820  0.25835601     0.08800
H1002       H  0.86700288  0.68004923  0.25060167     0.06300
H1003       H  0.83922948  0.59010104  0.23389238     0.06100
C1004       C  0.48875549  0.79025622  0.26488132     0.03200
C1005       C  0.50108540  0.80549577  0.30386794    -0.13000
C1006       C  0.51557791  0.83586222  0.30404566     0.00700
C1007       C  0.51908167  0.85079707  0.26442935    -0.11500
C1008       C  0.50664905  0.83591045  0.22554569     0.03200
C1009       C  0.49175589  0.80562170  0.22570305    -0.10900
H1010       H  0.49829558  0.79366988  0.33424217     0.08800
H1011       H  0.52996875  0.87425767  0.26422922     0.06300
H1012       H  0.48103298  0.79404463  0.19602887     0.06100
C1013       C  0.94986113  0.71069564  0.23553955    -0.09100
C1014       C  0.92472022  0.69973972  0.26133347     0.07100
C1015       C  0.92269771  0.71815648  0.29192417    -0.02900
C1016       C  0.94436478  0.74733280  0.29359595    -0.07300
C1017       C  0.96863884  0.75855696  0.26610797     0.06200
C1018       C  0.97185970  0.73976813  0.23808203    -0.02400
Br1019     Br  0.50624258  0.75271968  0.20373473    -0.02100
H1020       H  0.95215807  0.69675231  0.21263084     0.10100
H1021       H  0.94189895  0.76148437  0.31582868     0.08100
Br1022     Br  0.89177060  0.70471084  0.33370795    -0.02500
C1023       C  0.87783722  0.57233830  0.27636893    -0.09100
C1024       C  0.89113483  0.59469232  0.24511044     0.07100
C1025       C  0.90955027  0.59364695  0.21361791    -0.02900
C1026       C  0.91501179  0.57081422  0.21450094    -0.07300
C1027       C  0.90207741  0.54858673  0.24612679     0.06200
C1028       C  0.88311509  0.54932693  0.27707615    -0.02400
Br1029     Br  0.86277871  0.51889147  0.31940294    -0.02100
H1030       H  0.86325552  0.57280822  0.30028988     0.10100
H1031       H  0.92958250  0.57048972  0.19041818     0.08100
Br1032     Br  0.92651394  0.62198962  0.16746065    -0.02500
C1033       C  0.79889653  0.60312129  0.26702544    -0.09100
C1034       C  0.81865292  0.62657170  0.24092064     0.07100
C1035       C  0.80827315  0.64138243  0.21466851    -0.02900
C1036       C  0.77888266  0.63322494  0.21633599    -0.07300
C1037       C  0.75939374  0.61004685  0.24302625     0.06200
C1038       C  0.76950504  0.59440500  0.26752789    -0.02400
Br1039     Br  0.74400925  0.55957123  0.29955184    -0.02100
H1040       H  0.80630743  0.59122998  0.28698785     0.10100
H1041       H  0.77114569  0.64488006  0.19648965     0.08100
Br1042     Br  0.83238522  0.67128076  0.17358423    -0.02500
C1043       C  0.55224673  0.87799450  0.34650669    -0.09100
C1044       C  0.52466452  0.85275999  0.34514429     0.07100
C1045       C  0.50470044  0.84759214  0.37905225    -0.02900
C1046       C  0.51195902  0.86840579  0.41150775    -0.07300
C1047       C  0.53830034  0.89479873  0.40983175     0.06200
C1048       C  0.55894159  0.89917500  0.37793545    -0.02400
Br1049     Br  0.59590939  0.93442723  0.37450293    -0.02100
H1050       H  0.56789532  0.88221361  0.32101739     0.10100
H1051       H  0.49589632  0.86507328  0.43580869     0.08100
Br1052     Br  0.96558974  0.81507014  0.37951691    -0.02500
C1053       C  0.63091419  0.57226605  0.37703697    -0.09100
C1054       C  0.63347018  0.55110764  0.40078204     0.07100
C1055       C  0.65567059  0.54543371  0.39083970    -0.02900
C1056       C  0.67403254  0.55975902  0.35563527    -0.07300
C1057       C  0.67036716  0.57960158  0.32982346     0.06200
C1058       C  0.64934866  0.58670638  0.34181822    -0.02400
Br1059     Br  0.64448876  0.61526533  0.31046021    -0.02100
H1060       H  0.61374261  0.57662432  0.38469509     0.10100
H1061       H  0.68984527  0.55382845  0.34653864     0.08100
Br1062     Br  0.65952619  0.01599497  0.42144703    -0.02500
C1063       C  0.99394172  0.00126461  0.34600375    -0.09100
C1064       C  0.98216369  0.99349487  0.38831282     0.07100
C1065       C  0.95455923  0.99025395  0.39586514    -0.02900
C1066       C  0.93897478  0.99331162  0.36081451    -0.07300
C1067       C  0.95054086  0.99998803  0.31829414     0.06200
C1068       C  0.97879426  0.00492970  0.31151404    -0.02400
Br1069     Br  0.99907932  0.51868004  0.25681079    -0.02100
H1070       H  0.51553472  0.50498131  0.33951944     0.10100
H1071       H  0.91751694  0.98999720  0.36662909     0.08100
Br1072     Br  0.93635395  0.98074158  0.45228975    -0.02500
C1073       C  0.49989424  0.88941138  0.15222945    -0.09100
C1074       C  0.51513816  0.88969742  0.11495760     0.07100
C1075       C  0.52516629  0.86995525  0.11238797    -0.02900
C1076       C  0.52109580  0.85145986  0.14802217    -0.07300
C1077       C  0.50715402  0.85242008  0.18613123     0.06200
C1078       C  0.49566498  0.87094567  0.18742119    -0.02400
Br1079     Br  0.47381365  0.87191862  0.23628617    -0.02100
H1080       H  0.49144745  0.90396609  0.15425497     0.10100
H1081       H  0.52992601  0.83721485  0.14676370     0.08100
Br1082     Br  0.54672566  0.86912615  0.06316890    -0.02500
C1083       C  0.94128436  0.95780654  0.11903259    -0.09100
C1084       C  0.95941181  0.98193556  0.09284949     0.07100
C1085       C  0.95901376  0.50774798  0.09752026    -0.02900
C1086       C  0.94317689  0.51015848  0.13161197    -0.07300
C1087       C  0.92730886  0.98690328  0.16090314     0.06200
C1088       C  0.92478827  0.95993087  0.15235951    -0.02400
Br1089     Br  0.90000901  0.92576376  0.18614390    -0.02100
H1090       H  0.94094950  0.93759381  0.11476297     0.10100
H1091       H  0.94538959  0.53108636  0.13742270     0.08100
Br1092     Br  0.48262712  0.54131957  0.06191668    -0.02500
C1093       C  0.66240697  0.54783457  0.14838271    -0.09100
C1094       C  0.66307867  0.57143511  0.16890575     0.07100
C1095       C  0.64314327  0.58001328  0.15570619    -0.02900
C1096       C  0.62191471  0.56397838  0.12418423    -0.07300
C1097       C  0.62058423  0.53970229  0.10514641     0.06200
C1098       C  0.64131177  0.53194595  0.11671710    -0.02400
Br1099     Br  0.63981929  0.49816899  0.09323021    -0.02100
H1100       H  0.67733264  0.54076915  0.15874420     0.10100
H1101       H  0.60609312  0.57014390  0.11506336     0.08100
Br1102     Br  0.64406492  0.61333343  0.17988245    -0.02500
C1103       C  0.93904380  0.87095837  0.64957080    -0.09100
C1104       C  0.92167849  0.88166762  0.66444387     0.07100
C1105       C  0.92398745  0.90664474  0.64488870    -0.02900
C1106       C  0.94443490  0.92126416  0.61217351    -0.07300
C1107       C  0.96314122  0.91163429  0.59842961     0.06200
C1108       C  0.95947659  0.88540978  0.61649065    -0.02400
Br1109     Br  0.48125754  0.86776733  0.59853584    -0.02100
H1110       H  0.93714136  0.85162172  0.66453341     0.10100
H1111       H  0.94647990  0.94105917  0.59893288     0.08100
Br1112     Br  0.90168626  0.92332846  0.66453869    -0.02500
C1113       C  0.92889123  0.86585638  0.84666130    -0.09100
C1114       C  0.91632170  0.87990743  0.82464594     0.07100
C1115       C  0.92075048  0.90632612  0.84038418    -0.02900
C1116       C  0.93879530  0.91907441  0.87651889    -0.07300
C1117       C  0.95300203  0.90606918  0.89759953     0.06200
C1118       C  0.94690302  0.87845032  0.88322942    -0.02400
Br1119     Br  0.46242384  0.85659659  0.91045108    -0.02100
H1120       H  0.92522188  0.84533198  0.83465912     0.10100
H1121       H  0.94260694  0.93997715  0.88682884     0.08100
Br1122     Br  0.90453730  0.92703426  0.81141324    -0.02500
C1123       C  0.81708246  0.85528293  0.70826327    -0.09100
C1124       C  0.82573903  0.83980823  0.73593011     0.07100
C1125       C  0.80475784  0.81675839  0.76156192    -0.02900
C1126       C  0.77610790  0.81073726  0.76115588    -0.07300
C1127       C  0.76758007  0.82677413  0.73451364     0.06200
C1128       C  0.78822785  0.84869395  0.70683950    -0.02400
Br1129     Br  0.77825154  0.86931847  0.66480382    -0.02100
H1130       H  0.83291165  0.87286300  0.68800348     0.10100
H1131       H  0.76044180  0.79353849  0.78212853     0.08100
Br1132     Br  0.81360235  0.79196387  0.79617002    -0.02500
C1133       C  0.63462804  0.94081402  0.64814961    -0.09100
C1134       C  0.64876374  0.96273043  0.67943914     0.07100
C1135       C  0.65079967  0.98969905  0.67195895    -0.02900
C1136       C  0.63642903  0.99333258  0.63597218    -0.07300
C1137       C  0.62000223  0.97044503  0.60690091     0.06200
C1138       C  0.62051745  0.94449101  0.61198049    -0.02400
Br1139     Br  0.60259799  0.91329490  0.57079892    -0.02100
H1140       H  0.63328303  0.92005557  0.65293675     0.10100
H1141       H  0.63700181  0.01377329  0.63196674     0.08100
Br1142     Br  0.67275621  0.02209426  0.70992331    -0.02500
C1143       C  0.60544051  0.92298671  0.84750956    -0.09100
C1144       C  0.63350765  0.94594283  0.83902710     0.07100
C1145       C  0.64586086  0.97035363  0.86600917    -0.02900
C1146       C  0.62945763  0.97220764  0.89970417    -0.07300
C1147       C  0.60051766  0.95000850  0.90696516     0.06200
C1148       C  0.58880996  0.92468134  0.88105604    -0.02400
Br1149     Br  0.54977774  0.89245368  0.88638063    -0.02100
H1150       H  0.59592990  0.90406697  0.82654574     0.10100
H1151       H  0.63919084  0.99167712  0.91943973     0.08100
Br1152     Br  0.68470388  0.00195040  0.85687074    -0.02500
C1153       C  0.67192521  0.88428015  0.72208530    -0.09100
C1154       C  0.68306664  0.90399041  0.75685369     0.07100
C1155       C  0.70142821  0.90154067  0.78817341    -0.02900
C1156       C  0.70727130  0.87894965  0.78503783    -0.07300
C1157       C  0.69549352  0.85900599  0.75067635     0.06200
C1158       C  0.67844354  0.86237168  0.71833841    -0.02400
Br1159     Br  0.66520024  0.83908433  0.66665440    -0.02100
H1160       H  0.65787149  0.88577754  0.69759293     0.10100
H1161       H  0.72115078  0.87699208  0.80935241     0.08100
Br1162     Br  0.72042640  0.92914432  0.83419447    -0.02500
C1163       C  0.59454105  0.60703559  0.64078903    -0.09100
C1164       C  0.57160279  0.60103580  0.66898136     0.07100
C1165       C  0.54341052  0.57821522  0.65885599    -0.02900
C1166       C  0.53916042  0.56009695  0.62357978    -0.07300
C1167       C  0.56264902  0.56442408  0.59768503     0.06200
C1168       C  0.59032480  0.58920749  0.60517718    -0.02400
Br1169     Br  0.62351217  0.60018224  0.56869465    -0.02100
H1170       H  0.61621955  0.62488063  0.64769952     0.10100
H1171       H  0.51760298  0.54174250  0.61780616     0.08100
Br1172     Br  0.51006604  0.57070038  0.69242380    -0.02500
C1173       C  0.58724838  0.57010593  0.87947057    -0.09100
C1174       C  0.55998142  0.55740212  0.90007089     0.07100
C1175       C  0.54007835  0.56619737  0.88663186    -0.02900
C1176       C  0.54722908  0.58602437  0.85201118    -0.07300
C1177       C  0.57386516  0.59738798  0.83059557     0.06200
C1178       C  0.59413900  0.58968773  0.84484949    -0.02400
Br1179     Br  0.63066522  0.60368786  0.81590774    -0.02100
H1180       H  0.60292635  0.56382867  0.88881354     0.10100
H1181       H  0.53161168  0.59199178  0.84089324     0.08100
Br1182     Br  0.50278514  0.55225971  0.91316360    -0.02500
C1183       C  0.66865893  0.73589972  0.77617991    -0.09100
C1184       C  0.66293167  0.75330383  0.74790382     0.07100
C1185       C  0.63695574  0.74039904  0.72313827    -0.02900
C1186       C  0.61752692  0.71060575  0.72679532    -0.07300
C1187       C  0.62380297  0.69303912  0.75387631     0.06200
C1188       C  0.64981798  0.70605240  0.77873848    -0.02400
Br1189     Br  0.66297607  0.68451052  0.81297888    -0.02100
H1190       H  0.68861116  0.74549062  0.79523975     0.10100
H1191       H  0.59779415  0.70093020  0.70724352     0.08100
Br1192     Br  0.62798570  0.76137228  0.68059073    -0.02500
loop_ 
_geom_bond_atom_site_label_1 
_geom_bond_atom_site_label_2 
_geom_bond_distance 
_geom_bond_site_symmetry_2 
_ccdc_geom_bond_type 
C1            C2   1.404       .  A
C1            C6   1.407       .  A
C1          C293   1.481       .  S
C2            C3   1.397       .  A
C2            H7   1.083       .  S
C3            C4   1.396       .  A
C3          C283   1.465       .  S
C4            C5   1.400       .  A
C4            H8   1.084       .  S
C5            C6   1.403       .  A
C5          C270   1.478       .  S
C6            H9   1.084       .  S
C10          C11   1.403       .  A
C10          C15   1.407       .  A
C10         C260   1.480       .  S
C11          C12   1.397       .  A
C11          H16   1.084       .  S
C12          C13   1.400       .  A
C12         C250   1.468       .  S
C13          C14   1.402       .  A
C13          H17   1.084       .  S
C14          C15   1.402       .  A
C14         C240   1.482       .  S
C15          H18   1.083       .  S
C19          C20   1.404       .  A
C19          C24   1.399       .  A
C19         C263   1.472       .  S
C20          C21   1.402       .  A
C20          H25   1.083       .  S
C21          C22   1.402       .  A
C21         C290   1.479       .  S
C22          C23   1.400       .  A
C22          H26   1.085       .  S
C23          C24   1.401       .  A
C23         C233   1.478       .  S
C24          H27   1.083       .  S
C28          C29   1.404       .  A
C28          C33   1.403       .  A
C28         C230   1.476       .  S
C29          C30   1.398       .  A
C29          H34   1.083       .  S
C30          C31   1.398       .  A
C30         C220   1.467       .  S
C31          C32   1.398       .  A
C31          H35   1.085       .  S
C32          C33   1.399       .  A
C32         C210   1.468       .  S
C33          H36   1.084       .  S
Zn37         O41   1.926       .  S
Zn37         O42   1.992       .  S
Zn37         O53   1.981       .  S
Zn37        O344   2.008       .  S
Zn38         O41   1.954   1_556  S
Zn38        O341   2.007       .  S
Zn38        O641   2.020   1_456  S
Zn38        O645   1.988   1_455  S
Zn39        O339   1.947   1_556  S
Zn39         O44   2.009   1_566  S
Zn39         O47   2.001   1_565  S
Zn39        O348   2.003       .  S
Zn40         O41   1.965   1_556  S
Zn40         O48   2.013       .  S
Zn40         O51   2.019   1_455  S
Zn40         O52   2.027   1_556  S
O41        Zn337   1.947   1_554  S
O42         C650   1.270   1_455  A
O43        Zn336   2.007   1_545  S
O43          C55   1.271       .  A
O44          C56   1.271       .  A
O45        Zn634   2.020   1_554  S
O45          C54   1.271       .  A
O46        Zn335   2.008   1_545  S
O46          C56   1.272       .  A
O47          C55   1.273       .  A
O48          C57   1.271       .  A
O49        Zn634   1.988       .  S
O49          C58   1.272       .  A
O50        Zn337   2.003       .  S
O50          C57   1.273       .  A
O51         C654   1.272       .  A
O52          C59   1.273       .  A
O53          C59   1.271       .  A
C54         C190   1.465       .  S
C54         O638   1.270       .  A
C55         C280   1.484       .  S
C56         C203   1.463       .  S
C57         C253   1.485       .  S
C58         C223   1.487       .  S
C58         O647   1.272       .  A
C59         C180   1.473       .  S
Zn60         O64   1.926       .  S
Zn60         O69   1.987       .  S
Zn60         O76   1.994       .  S
Zn60        O363   1.984       .  S
Zn61        O362   1.955   1_545  S
Zn61         O66   1.988       .  S
Zn61         O68   2.010       .  S
Zn61        O370   2.010   1_545  S
Zn62         O64   1.968       .  S
Zn62        O663   2.039   1_455  S
Zn62        O368   2.027       .  S
Zn62        O669   2.014   1_455  S
Zn63         O64   1.956       .  S
Zn63         O71   1.999       .  S
Zn63         O74   2.012       .  S
Zn63         O75   2.018       .  S
O64        Zn359   1.955       .  S
O65        Zn358   1.984   1_545  S
O65          C77   1.269       .  A
O66          C78   1.270       .  A
O67        Zn658   2.039       .  S
O67          C79   1.274       .  A
O68          C77   1.270       .  A
O69         C675   1.271   1_455  A
O70        Zn360   2.027   1_545  S
O70          C78   1.275       .  A
O71         C676   1.270   1_455  A
O72        Zn359   2.010       .  S
O72          C81   1.272       .  A
O73        Zn658   2.014       .  S
O73          C80   1.276       .  A
O74          C81   1.273       .  A
O75          C82   1.272       .  A
O76          C82   1.271       .  A
C77         C160   1.458       .  S
C78         C273   1.482       .  S
C79         C170   1.487       .  S
C79         O665   1.271       .  A
C80         C213   1.486       .  S
C80         O667   1.270       .  A
C81         C243   1.480       .  S
C82         C153   1.467       .  S
C83          C84   1.404       .  A
C83          C88   1.403       .  A
C83         C143   1.476       .  S
C84          C85   1.402       .  A
C84          H89   1.084       .  S
C85          C86   1.400       .  A
C85         C200   1.475       .  S
C86          C87   1.400       .  A
C86          H90   1.085       .  S
C87          C88   1.399       .  A
C87         C163   1.476       .  S
C88          H91   1.084       .  S
C92          C93   1.405       .  A
C92          C97   1.404       .  A
C92         C133   1.477       .  S
C93         C392   1.402       .  A
C93          H98   1.084       .  S
C94          C95   1.402       .  A
C94         C391   1.402       .  A
C94         C173   1.483       .  S
C95          C96   1.403       .  A
C95          H99   1.083       .  S
C96         C395   1.400       .  A
C96         C193   1.483       .  S
C97         C394   1.400   1_545  A
C97         H100   1.084       .  S
C101        C102   1.400       .  A
C101        C106   1.397       .  A
C101        C130   1.471       .  S
C102        C103   1.403       .  A
C102        H107   1.084       .  S
C103        C104   1.407       .  A
C103        C120   1.483       .  S
C104        C105   1.404       .  A
C104        H108   1.081       .  S
C105        C106   1.402       .  A
C105        C140   1.483       .  S
C106        H109   1.084       .  S
C110        C111   1.406   1_655  A
C110        C115   1.406       .  A
C110        C719   1.476       .  S
C111        C112   1.403       .  A
C111        H116   1.084   1_455  S
C112        C113   1.401       .  A
C112        C150   1.483       .  S
C113        C114   1.398       .  A
C113        H117   1.084       .  S
C114        C115   1.398   1_455  A
C114        C183   1.475       .  S
C115        H118   1.084       .  S
C119        C120   1.407       .  A
C119        C124   1.398       .  A
C119        H126   1.083       .  S
C120        C121   1.412       .  A
C121        C122   1.396       .  A
C121       Br128   1.921       .  S
C122        C123   1.403       .  A
C122        H127   1.082       .  S
C123        C124   1.407       .  A
C123        C706   1.476       .  S
C124       Br721   1.919       .  S
Br125       C720   1.919   1_455  S
C129        C130   1.404       .  A
C129        C134   1.397       .  A
C129        H136   1.084       .  S
C130        C131   1.406       .  A
C131        C132   1.394       .  A
C131       Br138   1.920       .  S
C132        C133   1.406       .  A
C132        H137   1.084       .  S
C133        C134   1.409       .  A
C134       Br135   1.920       .  S
C139        C140   1.405       .  A
C139        C144   1.392       .  A
C139        H146   1.083       .  S
C140        C141   1.413       .  A
C141        C142   1.400       .  A
C141       Br148   1.920       .  S
C142        C143   1.403       .  A
C142        H147   1.083       .  S
C143        C144   1.409       .  A
C144       Br145   1.922       .  S
C149        C150   1.406       .  A
C149        C154   1.395       .  A
C149        H156   1.084       .  S
C150        C151   1.416       .  A
C151        C152   1.399       .  A
C151       Br754   1.921   1_455  S
C152        C153   1.400       .  A
C152        H157   1.084   1_455  S
C153        C154   1.406       .  A
C154       Br155   1.920       .  S
Br158       C747   1.921       .  S
C159        C160   1.400       .  A
C159        C164   1.397       .  A
C159        H166   1.084       .  S
C160        C161   1.403       .  A
C161        C162   1.394       .  A
C161       Br466   1.920       .  S
C162        C163   1.405       .  A
C162        H167   1.083       .  S
C163        C164   1.410       .  A
C164       Br165   1.919       .  S
Br168       C459   1.920       .  S
C169        C170   1.406       .  A
C169        C174   1.391       .  A
C169       H1070   1.083       .  S
C170        C171   1.416       .  A
C171        C172   1.405       .  A
C171       Br178   1.920       .  S
C172        C173   1.406       .  A
C172        H177   1.083       .  S
C173        C174   1.411       .  A
C174       Br473   1.925       .  S
Br175       C472   1.925       .  S
H176       C1063   1.083   1_455  S
C179        C180   1.403   1_655  A
C179        C184   1.390       .  A
C179        H186   1.084       .  S
C180        C181   1.411       .  A
C181        C182   1.403       .  A
C181       Br188   1.919       .  S
C182        C183   1.404       .  A
C182        H187   1.083       .  S
C183        C184   1.409   1_455  A
C184       Br185   1.923       .  S
C189        C190   1.402       .  A
C189        C194   1.397       .  A
C189        H196   1.084       .  S
C190        C489   1.403       .  A
C191        C192   1.397       .  A
C191        C488   1.403   1_545  A
C191       Br794   1.919       .  S
C192        C491   1.409   1_545  A
C192        H197   1.083       .  S
C193        C194   1.410       .  A
C193        C490   1.409       .  A
C194       Br195   1.920       .  S
Br198       C787   1.919       .  S
C199        C200   1.403       .  A
C199        C204   1.396       .  A
C199        H206   1.084       .  S
C200        C201   1.410       .  A
C201        C202   1.398       .  A
C201       Br208   1.919       .  S
C202        C203   1.401       .  A
C202        H207   1.084       .  S
C203        C204   1.406       .  A
C204       Br205   1.920   1_545  S
C209        C210   1.398       .  A
C209        C214   1.399       .  A
C209        H216   1.083       .  S
C210        C211   1.405       .  A
C211        C212   1.393       .  A
C211       Br218   1.922       .  S
C212        C213   1.407       .  A
C212        H217   1.082       .  S
C213        C214   1.421       .  A
C214       Br811   1.923       .  S
Br215       C810   1.923       .  S
C219        C220   1.399       .  A
C219        C224   1.400       .  A
C219        H226   1.083       .  S
C220        C221   1.403       .  A
C221        C222   1.392       .  A
C221       Br228   1.921       .  S
C222        C223   1.410       .  A
C222        H227   1.083       .  S
C223        C224   1.419       .  A
C224       Br821   1.922       .  S
Br225       C820   1.922       .  S
C229        C230   1.405       .  A
C229        C234   1.395       .  A
C229        H236   1.083       .  S
C230        C231   1.408       .  A
C231        C232   1.394       .  A
C231       Br238   1.921       .  S
C232        C233   1.406       .  A
C232        H237   1.083       .  S
C233        C234   1.410       .  A
C234       Br235   1.921       .  S
C239        C240   1.405       .  A
C239        C244   1.396       .  A
C239        H246   1.086       .  S
C240        C241   1.409       .  A
C241        C242   1.399       .  A
C241       Br248   1.920       .  S
C242        C243   1.407       .  A
C242        H247   1.085       .  S
C243        C244   1.411       .  A
C244       Br245   1.922       .  S
C249        C250   1.398       .  A
C249        C254   1.397       .  A
C249        H256   1.087       .  S
C250        C251   1.402       .  A
C251        C252   1.396       .  A
C251       Br258   1.918       .  S
C252        C253   1.409       .  A
C252        H257   1.086       .  S
C253        C254   1.419       .  A
C254       Br255   1.923       .  S
C259        C260   1.405       .  A
C259        C264   1.390       .  A
C259        H266   1.083       .  S
C260        C261   1.413       .  A
C261        C262   1.400       .  A
C261       Br268   1.920       .  S
C262        C263   1.403       .  A
C262        H267   1.083       .  S
C263        C264   1.405       .  A
C264       Br265   1.917       .  S
C269        C270   1.401       .  A
C269        C274   1.396       .  A
C269        H276   1.083       .  S
C270        C271   1.409       .  A
C271        C272   1.397       .  A
C271       Br278   1.921       .  S
C272        C273   1.406       .  A
C272        H277   1.083       .  S
C273        C274   1.416       .  A
C274       Br275   1.923       .  S
C279        C280   1.408       .  A
C279        C284   1.393       .  A
C279        H286   1.083       .  S
C280        C281   1.419       .  A
C281        C282   1.399       .  A
C281       Br288   1.922       .  S
C282        C283   1.398       .  A
C282        H287   1.083       .  S
C283        C284   1.403       .  A
C284       Br285   1.920       .  S
C289        C290   1.403       .  A
C289        C294   1.393       .  A
C289        H296   1.084       .  S
C290        C291   1.410       .  A
C291        C292   1.397       .  A
C291       Br298   1.915       .  S
C292        C293   1.405       .  A
C292        H297   1.083       .  S
C293        C294   1.413       .  A
C294       Br295   1.921       .  S
C299        C300   1.404       .  A
C299        C304   1.407       .  A
C299        C591   1.481       .  S
C300        C301   1.397       .  A
C300        H305   1.083       .  S
C301        C302   1.396       .  A
C301        C581   1.465       .  S
C302        C303   1.400       .  A
C302        H306   1.084       .  S
C303        C304   1.403       .  A
C303        C568   1.478       .  S
C304        H307   1.084       .  S
C308        C309   1.403       .  A
C308        C313   1.407       .  A
C308        C558   1.480       .  S
C309        C310   1.397       .  A
C309        H314   1.084       .  S
C310        C311   1.400       .  A
C310        C548   1.468       .  S
C311        C312   1.402       .  A
C311        H315   1.084       .  S
C312        C313   1.402       .  A
C312        C538   1.482       .  S
C313        H316   1.083       .  S
C317        C318   1.404       .  A
C317        C322   1.399       .  A
C317        C561   1.472       .  S
C318        C319   1.402       .  A
C318        H323   1.083       .  S
C319        C320   1.402       .  A
C319        C588   1.479       .  S
C320        C321   1.400       .  A
C320        H324   1.085       .  S
C321        C322   1.401       .  A
C321        C531   1.478       .  S
C322        H325   1.083       .  S
C326        C327   1.404       .  A
C326        C331   1.403       .  A
C326        C528   1.476       .  S
C327        C328   1.398       .  A
C327        H332   1.083       .  S
C328        C329   1.398       .  A
C328        C518   1.467       .  S
C329        C330   1.398       .  A
C329        H333   1.085       .  S
C330        C331   1.399       .  A
C330        C508   1.468       .  S
C331        H334   1.084       .  S
Zn335       O339   1.926       .  S
Zn335       O340   1.992       .  S
Zn335       O351   1.981       .  S
Zn336       O339   1.954   1_556  S
Zn336       O939   2.020   1_456  S
Zn336       O943   1.988   1_455  S
Zn337       O342   2.009   1_556  S
Zn337       O345   2.001       .  S
Zn338       O339   1.965   1_556  S
Zn338       O346   2.013       .  S
Zn338       O349   2.019   1_455  S
Zn338       O350   2.027   1_556  S
O340        C948   1.270   1_455  A
O341        C353   1.271       .  A
O342        C354   1.271       .  A
O343       Zn932   2.020   1_554  S
O343        C352   1.271       .  A
O344        C354   1.272       .  A
O345        C353   1.273       .  A
O346        C355   1.271       .  A
O347       Zn932   1.988       .  S
O347        C356   1.272       .  A
O348        C355   1.273       .  A
O349        C952   1.272       .  A
O350        C357   1.273       .  A
O351        C357   1.271       .  A
C352        C488   1.465       .  S
C352        O936   1.270       .  A
C353        C578   1.484       .  S
C354        C501   1.463       .  S
C355        C551   1.485       .  S
C356        C521   1.487       .  S
C356        O945   1.272       .  A
C357        C478   1.473       .  S
Zn358       O362   1.926       .  S
Zn358       O367   1.987       .  S
Zn358       O374   1.994       .  S
Zn359       O364   1.988       .  S
Zn359       O366   2.010       .  S
Zn360       O362   1.968       .  S
Zn360       O961   2.039   1_455  S
Zn360       O967   2.014   1_455  S
Zn361       O362   1.956       .  S
Zn361       O369   1.999       .  S
Zn361       O372   2.012       .  S
Zn361       O373   2.018       .  S
O363        C375   1.269       .  A
O364        C376   1.270       .  A
O365       Zn956   2.039       .  S
O365        C377   1.274       .  A
O366        C375   1.270       .  A
O367        C973   1.271   1_455  A
O368        C376   1.275       .  A
O369        C974   1.270   1_455  A
O370        C379   1.272       .  A
O371       Zn956   2.014       .  S
O371        C378   1.276       .  A
O372        C379   1.273       .  A
O373        C380   1.272       .  A
O374        C380   1.271       .  A
C375        C458   1.458       .  S
C376        C571   1.482       .  S
C377        C468   1.487       .  S
C377        O963   1.271       .  A
C378        C511   1.486       .  S
C378        O965   1.270       .  A
C379        C541   1.480       .  S
C380        C451   1.467       .  S
C381        C382   1.404       .  A
C381        C386   1.403       .  A
C381        C441   1.476       .  S
C382        C383   1.402       .  A
C382        H387   1.084       .  S
C383        C384   1.400       .  A
C383        C498   1.475       .  S
C384        C385   1.400       .  A
C384        H388   1.085       .  S
C385        C386   1.399       .  A
C385        C461   1.476       .  S
C386        H389   1.084       .  S
C390        C391   1.405       .  A
C390        C395   1.404       .  A
C390        C431   1.477       .  S
C391        H396   1.084       .  S
C392        C393   1.402   1_545  A
C392        C471   1.483   1_545  S
C393        C394   1.403       .  A
C393        H397   1.083       .  S
C394        C491   1.483       .  S
C395        H398   1.084       .  S
C399        C400   1.400       .  A
C399        C404   1.397       .  A
C399        C428   1.471       .  S
C400        C401   1.403       .  A
C400        H405   1.084       .  S
C401        C402   1.407       .  A
C401        C418   1.483       .  S
C402        C403   1.404       .  A
C402        H406   1.081       .  S
C403        C404   1.402       .  A
C403        C438   1.483       .  S
C404        H407   1.084       .  S
C408        C409   1.406   1_655  A
C408        C413   1.406       .  A
C408       C1017   1.476       .  S
C409        C410   1.403       .  A
C409        H414   1.084   1_455  S
C410        C411   1.401       .  A
C410        C448   1.483       .  S
C411        C412   1.398       .  A
C411        H415   1.084       .  S
C412        C413   1.398   1_455  A
C412        C481   1.475       .  S
C413        H416   1.084       .  S
C417        C418   1.407       .  A
C417        C422   1.398       .  A
C417        H424   1.083       .  S
C418        C419   1.412       .  A
C419        C420   1.396       .  A
C419       Br426   1.921       .  S
C420        C421   1.403       .  A
C420        H425   1.082       .  S
C421        C422   1.407       .  A
C421       C1004   1.476       .  S
C422      Br1019   1.919       .  S
Br423      C1018   1.919   1_455  S
C427        C428   1.404       .  A
C427        C432   1.397       .  A
C427        H434   1.084       .  S
C428        C429   1.406       .  A
C429        C430   1.394       .  A
C429       Br436   1.920       .  S
C430        C431   1.406       .  A
C430        H435   1.084       .  S
C431        C432   1.409       .  A
C432       Br433   1.920       .  S
C437        C438   1.405       .  A
C437        C442   1.392       .  A
C437        H444   1.083       .  S
C438        C439   1.413       .  A
C439        C440   1.400       .  A
C439       Br446   1.920       .  S
C440        C441   1.403       .  A
C440        H445   1.083       .  S
C441        C442   1.409       .  A
C442       Br443   1.922       .  S
C447        C448   1.406       .  A
C447        C452   1.395       .  A
C447        H454   1.084       .  S
C448        C449   1.416       .  A
C449        C450   1.399       .  A
C449      Br1052   1.921   1_455  S
C450        C451   1.400       .  A
C450        H455   1.084   1_455  S
C451        C452   1.406       .  A
C452       Br453   1.920       .  S
Br456      C1045   1.921       .  S
C457        C458   1.400       .  A
C457        C462   1.397       .  A
C457        H464   1.084       .  S
C458        C459   1.403       .  A
C459        C460   1.394       .  A
C460        C461   1.405       .  A
C460        H465   1.083       .  S
C461        C462   1.410       .  A
C462       Br463   1.919       .  S
C467        C468   1.406   1_545  A
C467        C472   1.391       .  A
C467        H772   1.083       .  S
C468        C469   1.416       .  A
C469        C470   1.405       .  A
C469       Br476   1.920       .  S
C470        C471   1.406       .  A
C470        H475   1.083       .  S
C471        C472   1.411   1_565  A
H474        C765   1.083   1_455  S
C477        C478   1.403   1_655  A
C477        C482   1.390       .  A
C477        H484   1.084       .  S
C478        C479   1.411       .  A
C479        C480   1.403       .  A
C479       Br486   1.919       .  S
C480        C481   1.404       .  A
C480        H485   1.083       .  S
C481        C482   1.409   1_455  A
C482       Br483   1.923       .  S
C487        C488   1.402       .  A
C487        C492   1.397       .  A
C487        H494   1.084       .  S
C489        C490   1.397       .  A
C489      Br1092   1.919       .  S
C490        H495   1.083       .  S
C491        C492   1.410       .  A
C492       Br493   1.920       .  S
Br496      C1085   1.919       .  S
C497        C498   1.403       .  A
C497        C502   1.396       .  A
C497        H504   1.084       .  S
C498        C499   1.410       .  A
C499        C500   1.398       .  A
C499       Br506   1.919       .  S
C500        C501   1.401       .  A
C500        H505   1.084       .  S
C501        C502   1.406       .  A
C502       Br503   1.920       .  S
C507        C508   1.398       .  A
C507        C512   1.399       .  A
C507        H514   1.083       .  S
C508        C509   1.405       .  A
C509        C510   1.393       .  A
C509       Br516   1.922       .  S
C510        C511   1.407       .  A
C510        H515   1.082       .  S
C511        C512   1.421       .  A
C512      Br1109   1.923       .  S
Br513      C1108   1.923       .  S
C517        C518   1.399       .  A
C517        C522   1.400       .  A
C517        H524   1.083       .  S
C518        C519   1.403       .  A
C519        C520   1.392       .  A
C519       Br526   1.921       .  S
C520        C521   1.410       .  A
C520        H525   1.083       .  S
C521        C522   1.419       .  A
C522      Br1119   1.922       .  S
Br523      C1118   1.922       .  S
C527        C528   1.405       .  A
C527        C532   1.395       .  A
C527        H534   1.083       .  S
C528        C529   1.408       .  A
C529        C530   1.394       .  A
C529       Br536   1.921       .  S
C530        C531   1.406       .  A
C530        H535   1.083       .  S
C531        C532   1.410       .  A
C532       Br533   1.921       .  S
C537        C538   1.405       .  A
C537        C542   1.396       .  A
C537        H544   1.086       .  S
C538        C539   1.409       .  A
C539        C540   1.399       .  A
C539       Br546   1.920   1_565  S
C540        C541   1.407       .  A
C540        H545   1.085   1_565  S
C541        C542   1.411       .  A
C542       Br543   1.922       .  S
C547        C548   1.398       .  A
C547        C552   1.397       .  A
C547        H554   1.087       .  S
C548        C549   1.402       .  A
C549        C550   1.396       .  A
C549       Br556   1.918   1_565  S
C550        C551   1.409       .  A
C550        H555   1.086       .  S
C551        C552   1.419       .  A
C552       Br553   1.923       .  S
C557        C558   1.405       .  A
C557        C562   1.390       .  A
C557        H564   1.083       .  S
C558        C559   1.413       .  A
C559        C560   1.400       .  A
C559       Br566   1.920       .  S
C560        C561   1.403       .  A
C560        H565   1.083       .  S
C561        C562   1.405       .  A
C562       Br563   1.917       .  S
C567        C568   1.401       .  A
C567        C572   1.396       .  A
C567        H574   1.083       .  S
C568        C569   1.409       .  A
C569        C570   1.397       .  A
C569       Br576   1.921       .  S
C570        C571   1.406       .  A
C570        H575   1.083       .  S
C571        C572   1.416       .  A
C572       Br573   1.923       .  S
C577        C578   1.408       .  A
C577        C582   1.393       .  A
C577        H584   1.083       .  S
C578        C579   1.419       .  A
C579        C580   1.399       .  A
C579       Br586   1.922       .  S
C580        C581   1.398       .  A
C580        H585   1.083       .  S
C581        C582   1.403       .  A
C582       Br583   1.920       .  S
C587        C588   1.403       .  A
C587        C592   1.393       .  A
C587        H594   1.084       .  S
C588        C589   1.410       .  A
C589        C590   1.397       .  A
C589       Br596   1.915       .  S
C590        C591   1.405       .  A
C590        H595   1.083       .  S
C591        C592   1.413       .  A
C592       Br593   1.921       .  S
C597        C598   1.404       .  A
C597        C602   1.407       .  A
C597        C889   1.481       .  S
C598        C599   1.397       .  A
C598        H603   1.083       .  S
C599        C600   1.396       .  A
C599        C879   1.465       .  S
C600        C601   1.400       .  A
C600        H604   1.084       .  S
C601        C602   1.403       .  A
C601        C866   1.478       .  S
C602        H605   1.084       .  S
C606        C607   1.403       .  A
C606        C611   1.407       .  A
C606        C856   1.480       .  S
C607        C608   1.397       .  A
C607        H612   1.084       .  S
C608        C609   1.400       .  A
C608        C846   1.468       .  S
C609        C610   1.402       .  A
C609        H613   1.084       .  S
C610        C611   1.402       .  A
C610        C836   1.482       .  S
C611        H614   1.083       .  S
C615        C616   1.404       .  A
C615        C620   1.399       .  A
C615        C859   1.472       .  S
C616        C617   1.402       .  A
C616        H621   1.083       .  S
C617        C618   1.402       .  A
C617        C886   1.479       .  S
C618        C619   1.400       .  A
C618        H622   1.085       .  S
C619        C620   1.401       .  A
C619        C829   1.478       .  S
C620        H623   1.083       .  S
C624        C625   1.404       .  A
C624        C629   1.403       .  A
C624        C826   1.476       .  S
C625        C626   1.398       .  A
C625        H630   1.083       .  S
C626        C627   1.398       .  A
C626        C816   1.467       .  S
C627        C628   1.398       .  A
C627        H631   1.085       .  S
C628        C629   1.399       .  A
C628        C806   1.468       .  S
C629        H632   1.084       .  S
Zn633       O637   1.926       .  S
Zn633       O638   1.992       .  S
Zn633       O940   2.008       .  S
Zn633       O649   1.981       .  S
Zn634       O637   1.954   1_556  S
Zn634       O937   2.007       .  S
Zn635       O935   1.947   1_556  S
Zn635       O640   2.009   1_566  S
Zn635       O643   2.001   1_565  S
Zn635       O944   2.003       .  S
Zn636       O637   1.965   1_556  S
Zn636       O644   2.013       .  S
Zn636       O647   2.019       .  S
Zn636       O648   2.027   1_556  S
O637       Zn933   1.947   1_554  S
O639       Zn932   2.007   1_545  S
O639        C651   1.271       .  A
O640        C652   1.271       .  A
O641        C650   1.271       .  A
O642       Zn931   2.008   1_545  S
O642        C652   1.272       .  A
O643        C651   1.273       .  A
O644        C653   1.271       .  A
O645        C654   1.272       .  A
O646       Zn933   2.003       .  S
O646        C653   1.273       .  A
O648        C655   1.273       .  A
O649        C655   1.271       .  A
C650        C786   1.465       .  S
C651        C876   1.484       .  S
C652        C799   1.463       .  S
C653        C849   1.485       .  S
C654        C819   1.487       .  S
C655        C776   1.473       .  S
Zn656       O660   1.926       .  S
Zn656       O959   1.984       .  S
Zn656       O665   1.987       .  S
Zn656       O672   1.994       .  S
Zn657       O958   1.955   1_545  S
Zn657       O662   1.988       .  S
Zn657       O664   2.010       .  S
Zn657       O966   2.010   1_545  S
Zn658       O660   1.968       .  S
Zn658       O964   2.027       .  S
Zn659       O660   1.956       .  S
Zn659       O667   1.999       .  S
Zn659       O670   2.012       .  S
Zn659       O671   2.018       .  S
O660       Zn955   1.955       .  S
O661       Zn954   1.984   1_545  S
O661        C673   1.269       .  A
O662        C674   1.270       .  A
O663        C675   1.274       .  A
O664        C673   1.270       .  A
O666       Zn956   2.027   1_545  S
O666        C674   1.275       .  A
O668       Zn955   2.010       .  S
O668        C677   1.272       .  A
O669        C676   1.276       .  A
O670        C677   1.273       .  A
O671        C678   1.272       .  A
O672        C678   1.271       .  A
C673        C756   1.458       .  S
C674        C869   1.482       .  S
C675        C766   1.487       .  S
C676        C809   1.486       .  S
C677        C839   1.480       .  S
C678        C749   1.467       .  S
C679        C680   1.404       .  A
C679        C684   1.403       .  A
C679        C739   1.476       .  S
C680        C681   1.402       .  A
C680        H685   1.084       .  S
C681        C682   1.400       .  A
C681        C796   1.475       .  S
C682        C683   1.400       .  A
C682        H686   1.085       .  S
C683        C684   1.399       .  A
C683        C759   1.475       .  S
C684        H687   1.084       .  S
C688        C689   1.405       .  A
C688        C693   1.404       .  A
C688        C729   1.477       .  S
C689        C988   1.402       .  A
C689        H694   1.084       .  S
C690        C987   1.402       .  A
C690        C691   1.402       .  A
C690        C769   1.483       .  S
C691        C692   1.403       .  A
C691        H695   1.083       .  S
C692        C991   1.400       .  A
C692        C789   1.483       .  S
C693        C990   1.400   1_545  A
C693        H696   1.084       .  S
C697        C698   1.400       .  A
C697        C702   1.397       .  A
C697        C726   1.471       .  S
C698        C699   1.403       .  A
C698        H703   1.084       .  S
C699        C700   1.407       .  A
C699        C716   1.483       .  S
C700        C701   1.404       .  A
C700        H704   1.081       .  S
C701        C702   1.402       .  A
C701        C736   1.483       .  S
C702        H705   1.084       .  S
C706        C707   1.406       .  A
C706        C711   1.406       .  A
C707        C708   1.403       .  A
C707        H712   1.084       .  S
C708        C709   1.401       .  A
C708        C746   1.483       .  S
C709        C710   1.398       .  A
C709        H713   1.084       .  S
C710        C711   1.398       .  A
C710        C779   1.475       .  S
C711        H714   1.084       .  S
C715        C716   1.407       .  A
C715        C720   1.398       .  A
C715        H722   1.083       .  S
C716        C717   1.412       .  A
C717        C718   1.396       .  A
C717       Br724   1.921       .  S
C718        C719   1.403       .  A
C718        H723   1.082       .  S
C719        C720   1.407       .  A
C725        C726   1.404       .  A
C725        C730   1.397       .  A
C725        H732   1.084       .  S
C726        C727   1.406       .  A
C727        C728   1.394       .  A
C727       Br734   1.920       .  S
C728        C729   1.406       .  A
C728        H733   1.084       .  S
C729        C730   1.409       .  A
C730       Br731   1.920       .  S
C735        C736   1.405       .  A
C735        C740   1.392       .  A
C735        H742   1.083       .  S
C736        C737   1.413       .  A
C737        C738   1.400       .  A
C737       Br744   1.920       .  S
C738        C739   1.403       .  A
C738        H743   1.083       .  S
C739        C740   1.409       .  A
C740       Br741   1.922       .  S
C745        C746   1.406       .  A
C745        C750   1.395       .  A
C745        H752   1.084       .  S
C746        C747   1.416       .  A
C747        C748   1.399       .  A
C748        C749   1.400       .  A
C748        H753   1.084       .  S
C749        C750   1.406       .  A
C750       Br751   1.920       .  S
C755        C756   1.400       .  A
C755        C760   1.397       .  A
C755        H762   1.084       .  S
C756        C757   1.403       .  A
C757        C758   1.394       .  A
C757      Br1062   1.920       .  S
C758        C759   1.405       .  A
C758        H763   1.083       .  S
C759        C760   1.410       .  A
C760       Br761   1.919       .  S
Br764      C1055   1.920       .  S
C765        C766   1.406       .  A
C765        C770   1.391       .  A
C766        C767   1.416       .  A
C767        C768   1.405       .  A
C767       Br774   1.920       .  S
C768        C769   1.406       .  A
C768        H773   1.083       .  S
C769        C770   1.411       .  A
C770      Br1069   1.925       .  S
Br771      C1068   1.925       .  S
C775        C776   1.403       .  A
C775        C780   1.390       .  A
C775        H782   1.084       .  S
C776        C777   1.411       .  A
C777        C778   1.403       .  A
C777       Br784   1.919       .  S
C778        C779   1.404       .  A
C778        H783   1.083       .  S
C779        C780   1.409       .  A
C780       Br781   1.923       .  S
C785        C786   1.402       .  A
C785        C790   1.397       .  A
C785        H792   1.084       .  S
C786       C1085   1.403       .  A
C787       C1084   1.403   1_545  A
C787        C788   1.397       .  A
C788       C1087   1.409   1_545  A
C788        H793   1.083       .  S
C789       C1086   1.409       .  A
C789        C790   1.410       .  A
C790       Br791   1.920       .  S
C795        C796   1.403       .  A
C795        C800   1.396       .  A
C795        H802   1.084       .  S
C796        C797   1.410       .  A
C797        C798   1.398       .  A
C797       Br804   1.919       .  S
C798        C799   1.401       .  A
C798        H803   1.084       .  S
C799        C800   1.406       .  A
C800       Br801   1.920   1_545  S
C805        C806   1.398       .  A
C805        C810   1.399       .  A
C805        H812   1.083       .  S
C806        C807   1.405       .  A
C807        C808   1.393       .  A
C807       Br814   1.922       .  S
C808        C809   1.407       .  A
C808        H813   1.082       .  S
C809        C810   1.421       .  A
C815        C816   1.399       .  A
C815        C820   1.400       .  A
C815        H822   1.083       .  S
C816        C817   1.403       .  A
C817        C818   1.392       .  A
C817       Br824   1.921       .  S
C818        C819   1.410       .  A
C818        H823   1.083       .  S
C819        C820   1.419       .  A
C825        C826   1.405       .  A
C825        C830   1.395       .  A
C825        H832   1.083       .  S
C826        C827   1.408       .  A
C827        C828   1.394       .  A
C827       Br834   1.921       .  S
C828        C829   1.406       .  A
C828        H833   1.083       .  S
C829        C830   1.410       .  A
C830       Br831   1.921       .  S
C835        C836   1.405       .  A
C835        C840   1.396       .  A
C835        H842   1.085       .  S
C836        C837   1.409       .  A
C837        C838   1.399       .  A
C837       Br844   1.920       .  S
C838        C839   1.407       .  A
C838        H843   1.085       .  S
C839        C840   1.411       .  A
C840       Br841   1.922       .  S
C845        C846   1.398       .  A
C845        C850   1.397       .  A
C845        H852   1.087       .  S
C846        C847   1.402       .  A
C847        C848   1.396       .  A
C847       Br854   1.918       .  S
C848        C849   1.409       .  A
C848        H853   1.086       .  S
C849        C850   1.419       .  A
C850       Br851   1.923       .  S
C855        C856   1.405       .  A
C855        C860   1.390       .  A
C855        H862   1.083       .  S
C856        C857   1.413       .  A
C857        C858   1.400       .  A
C857       Br864   1.920       .  S
C858        C859   1.403       .  A
C858        H863   1.083       .  S
C859        C860   1.405       .  A
C860       Br861   1.917       .  S
C865        C866   1.401       .  A
C865        C870   1.396       .  A
C865        H872   1.083       .  S
C866        C867   1.409       .  A
C867        C868   1.397       .  A
C867       Br874   1.921       .  S
C868        C869   1.406       .  A
C868        H873   1.083       .  S
C869        C870   1.416       .  A
C870       Br871   1.923       .  S
C875        C876   1.408       .  A
C875        C880   1.393       .  A
C875        H882   1.083       .  S
C876        C877   1.419       .  A
C877        C878   1.399       .  A
C877       Br884   1.922       .  S
C878        C879   1.398       .  A
C878        H883   1.083       .  S
C879        C880   1.403       .  A
C880       Br881   1.920       .  S
C885        C886   1.403       .  A
C885        C890   1.393       .  A
C885        H892   1.084       .  S
C886        C887   1.410       .  A
C887        C888   1.397       .  A
C887       Br894   1.915       .  S
C888        C889   1.405       .  A
C888        H893   1.083       .  S
C889        C890   1.413       .  A
C890       Br891   1.921       .  S
C895        C896   1.404       .  A
C895        C900   1.407       .  A
C895       C1187   1.481       .  S
C896        C897   1.397       .  A
C896        H901   1.083       .  S
C897        C898   1.396       .  A
C897       C1177   1.465       .  S
C898        C899   1.400       .  A
C898        H902   1.084       .  S
C899        C900   1.403       .  A
C899       C1164   1.478       .  S
C900        H903   1.084       .  S
C904        C905   1.403       .  A
C904        C909   1.407       .  A
C904       C1154   1.480       .  S
C905        C906   1.397       .  A
C905        H910   1.084       .  S
C906        C907   1.400       .  A
C906       C1144   1.468       .  S
C907        C908   1.402       .  A
C907        H911   1.084       .  S
C908        C909   1.402       .  A
C908       C1134   1.482       .  S
C909        H912   1.083       .  S
C913        C914   1.404       .  A
C913        C918   1.399       .  A
C913       C1157   1.472       .  S
C914        C915   1.402       .  A
C914        H919   1.083       .  S
C915        C916   1.402       .  A
C915       C1184   1.479       .  S
C916        C917   1.400       .  A
C916        H920   1.085       .  S
C917        C918   1.401       .  A
C917       C1127   1.478       .  S
C918        H921   1.083       .  S
C922        C923   1.404       .  A
C922        C927   1.403       .  A
C922       C1124   1.476       .  S
C923        C924   1.398       .  A
C923        H928   1.083       .  S
C924        C925   1.398       .  A
C924       C1114   1.467       .  S
C925        C926   1.398       .  A
C925        H929   1.085       .  S
C926        C927   1.399       .  A
C926       C1104   1.468       .  S
C927        H930   1.084       .  S
Zn931       O935   1.926       .  S
Zn931       O936   1.992       .  S
Zn931       O947   1.981       .  S
Zn932       O935   1.954   1_556  S
Zn933       O938   2.009   1_556  S
Zn933       O941   2.001       .  S
Zn934       O935   1.965   1_556  S
Zn934       O942   2.013       .  S
Zn934       O945   2.019       .  S
Zn934       O946   2.027   1_556  S
O937        C949   1.271       .  A
O938        C950   1.271       .  A
O939        C948   1.271       .  A
O940        C950   1.272       .  A
O941        C949   1.273       .  A
O942        C951   1.271       .  A
O943        C952   1.272       .  A
O944        C951   1.273       .  A
O946        C953   1.273       .  A
O947        C953   1.271       .  A
C948       C1084   1.465       .  S
C949       C1174   1.484       .  S
C950       C1097   1.463       .  S
C951       C1147   1.485       .  S
C952       C1117   1.487       .  S
C953       C1074   1.473       .  S
Zn954       O958   1.926       .  S
Zn954       O963   1.987       .  S
Zn954       O970   1.994       .  S
Zn955       O960   1.988       .  S
Zn955       O962   2.010       .  S
Zn956       O958   1.968       .  S
Zn957       O958   1.956       .  S
Zn957       O965   1.999       .  S
Zn957       O968   2.012       .  S
Zn957       O969   2.018       .  S
O959        C971   1.269       .  A
O960        C972   1.270       .  A
O961        C973   1.274       .  A
O962        C971   1.270       .  A
O964        C972   1.275       .  A
O966        C975   1.272       .  A
O967        C974   1.276       .  A
O968        C975   1.273       .  A
O969        C976   1.272       .  A
O970        C976   1.271       .  A
C971       C1054   1.458       .  S
C972       C1167   1.482       .  S
C973       C1064   1.487       .  S
C974       C1107   1.486       .  S
C975       C1137   1.480       .  S
C976       C1047   1.467       .  S
C977        C978   1.404       .  A
C977        C982   1.403       .  A
C977       C1037   1.476       .  S
C978        C979   1.402       .  A
C978        H983   1.084       .  S
C979        C980   1.400       .  A
C979       C1094   1.475       .  S
C980        C981   1.400       .  A
C980        H984   1.085       .  S
C981        C982   1.399       .  A
C981       C1057   1.475       .  S
C982        H985   1.084       .  S
C986        C987   1.405       .  A
C986        C991   1.404       .  A
C986       C1027   1.477       .  S
C987        H992   1.084       .  S
C988        C989   1.402   1_545  A
C988       C1067   1.483   1_545  S
C989        C990   1.403       .  A
C989        H993   1.083       .  S
C990       C1087   1.483       .  S
C991        H994   1.084       .  S
C995        C996   1.400       .  A
C995       C1000   1.397       .  A
C995       C1024   1.471       .  S
C996        C997   1.403       .  A
C996       H1001   1.084       .  S
C997        C998   1.407       .  A
C997       C1014   1.483       .  S
C998        C999   1.404       .  A
C998       H1002   1.081       .  S
C999       C1000   1.402       .  A
C999       C1034   1.483       .  S
C1000      H1003   1.084       .  S
C1004      C1005   1.406       .  A
C1004      C1009   1.406       .  A
C1005      C1006   1.403       .  A
C1005      H1010   1.084       .  S
C1006      C1007   1.401       .  A
C1006      C1044   1.483       .  S
C1007      C1008   1.398       .  A
C1007      H1011   1.084       .  S
C1008      C1009   1.398       .  A
C1008      C1077   1.475       .  S
C1009      H1012   1.084       .  S
C1013      C1014   1.407       .  A
C1013      C1018   1.398       .  A
C1013      H1020   1.083       .  S
C1014      C1015   1.412       .  A
C1015      C1016   1.396       .  A
C1015     Br1022   1.921       .  S
C1016      C1017   1.403       .  A
C1016      H1021   1.082       .  S
C1017      C1018   1.407       .  A
C1023      C1024   1.404       .  A
C1023      C1028   1.397       .  A
C1023      H1030   1.084       .  S
C1024      C1025   1.406       .  A
C1025      C1026   1.394       .  A
C1025     Br1032   1.920       .  S
C1026      C1027   1.406       .  A
C1026      H1031   1.084       .  S
C1027      C1028   1.409       .  A
C1028     Br1029   1.920       .  S
C1033      C1034   1.405       .  A
C1033      C1038   1.392       .  A
C1033      H1040   1.083       .  S
C1034      C1035   1.413       .  A
C1035      C1036   1.400       .  A
C1035     Br1042   1.920       .  S
C1036      C1037   1.403       .  A
C1036      H1041   1.083       .  S
C1037      C1038   1.409       .  A
C1038     Br1039   1.922       .  S
C1043      C1044   1.406       .  A
C1043      C1048   1.395       .  A
C1043      H1050   1.084       .  S
C1044      C1045   1.416       .  A
C1045      C1046   1.399       .  A
C1046      C1047   1.400       .  A
C1046      H1051   1.084       .  S
C1047      C1048   1.406       .  A
C1048     Br1049   1.920       .  S
C1053      C1054   1.400       .  A
C1053      C1058   1.397       .  A
C1053      H1060   1.084       .  S
C1054      C1055   1.403       .  A
C1055      C1056   1.394       .  A
C1056      C1057   1.405       .  A
C1056      H1061   1.083       .  S
C1057      C1058   1.410       .  A
C1058     Br1059   1.919       .  S
C1063      C1064   1.406   1_545  A
C1063      C1068   1.391       .  A
C1064      C1065   1.416       .  A
C1065      C1066   1.405       .  A
C1065     Br1072   1.920       .  S
C1066      C1067   1.406       .  A
C1066      H1071   1.083       .  S
C1067      C1068   1.411   1_565  A
C1073      C1074   1.403       .  A
C1073      C1078   1.390       .  A
C1073      H1080   1.084       .  S
C1074      C1075   1.411       .  A
C1075      C1076   1.403       .  A
C1075     Br1082   1.919       .  S
C1076      C1077   1.404       .  A
C1076      H1081   1.083       .  S
C1077      C1078   1.409       .  A
C1078     Br1079   1.923       .  S
C1083      C1084   1.402       .  A
C1083      C1088   1.397       .  A
C1083      H1090   1.084       .  S
C1085      C1086   1.397       .  A
C1086      H1091   1.083       .  S
C1087      C1088   1.410       .  A
C1088     Br1089   1.920       .  S
C1093      C1094   1.403       .  A
C1093      C1098   1.396       .  A
C1093      H1100   1.084       .  S
C1094      C1095   1.410       .  A
C1095      C1096   1.398       .  A
C1095     Br1102   1.919       .  S
C1096      C1097   1.401       .  A
C1096      H1101   1.084       .  S
C1097      C1098   1.406       .  A
C1098     Br1099   1.920       .  S
C1103      C1104   1.398       .  A
C1103      C1108   1.399       .  A
C1103      H1110   1.083       .  S
C1104      C1105   1.405       .  A
C1105      C1106   1.393       .  A
C1105     Br1112   1.922       .  S
C1106      C1107   1.407       .  A
C1106      H1111   1.082       .  S
C1107      C1108   1.421       .  A
C1113      C1114   1.399       .  A
C1113      C1118   1.400       .  A
C1113      H1120   1.083       .  S
C1114      C1115   1.403       .  A
C1115      C1116   1.392       .  A
C1115     Br1122   1.921       .  S
C1116      C1117   1.410       .  A
C1116      H1121   1.083       .  S
C1117      C1118   1.419       .  A
C1123      C1124   1.405       .  A
C1123      C1128   1.395       .  A
C1123      H1130   1.083       .  S
C1124      C1125   1.408       .  A
C1125      C1126   1.394       .  A
C1125     Br1132   1.921       .  S
C1126      C1127   1.406       .  A
C1126      H1131   1.083       .  S
C1127      C1128   1.410       .  A
C1128     Br1129   1.921       .  S
C1133      C1134   1.405       .  A
C1133      C1138   1.396       .  A
C1133      H1140   1.086       .  S
C1134      C1135   1.409       .  A
C1135      C1136   1.399       .  A
C1135     Br1142   1.920   1_565  S
C1136      C1137   1.407       .  A
C1136      H1141   1.085   1_565  S
C1137      C1138   1.411       .  A
C1138     Br1139   1.922       .  S
C1143      C1144   1.398       .  A
C1143      C1148   1.397       .  A
C1143      H1150   1.087       .  S
C1144      C1145   1.402       .  A
C1145      C1146   1.396       .  A
C1145     Br1152   1.918   1_565  S
C1146      C1147   1.409       .  A
C1146      H1151   1.086       .  S
C1147      C1148   1.419       .  A
C1148     Br1149   1.923       .  S
C1153      C1154   1.405       .  A
C1153      C1158   1.390       .  A
C1153      H1160   1.083       .  S
C1154      C1155   1.413       .  A
C1155      C1156   1.400       .  A
C1155     Br1162   1.920       .  S
C1156      C1157   1.403       .  A
C1156      H1161   1.083       .  S
C1157      C1158   1.405       .  A
C1158     Br1159   1.917       .  S
C1163      C1164   1.401       .  A
C1163      C1168   1.396       .  A
C1163      H1170   1.083       .  S
C1164      C1165   1.409       .  A
C1165      C1166   1.397       .  A
C1165     Br1172   1.921       .  S
C1166      C1167   1.406       .  A
C1166      H1171   1.083       .  S
C1167      C1168   1.416       .  A
C1168     Br1169   1.923       .  S
C1173      C1174   1.408       .  A
C1173      C1178   1.393       .  A
C1173      H1180   1.083       .  S
C1174      C1175   1.419       .  A
C1175      C1176   1.399       .  A
C1175     Br1182   1.922       .  S
C1176      C1177   1.398       .  A
C1176      H1181   1.083       .  S
C1177      C1178   1.403       .  A
C1178     Br1179   1.920       .  S
C1183      C1184   1.403       .  A
C1183      C1188   1.393       .  A
C1183      H1190   1.084       .  S
C1184      C1185   1.410       .  A
C1185      C1186   1.397       .  A
C1185     Br1192   1.915       .  S
C1186      C1187   1.405       .  A
C1186      H1191   1.083       .  S
C1187      C1188   1.413       .  A
C1188     Br1189   1.921       .  S
