geometry optimzed in LAMMPS
_audit_creation_date              2020-12-01 
_audit_creation_method            'lammps2cif' 
_symmetry_space_group_name_H-M    'P1' 
_symmetry_Int_Tables_number       1 
_symmetry_cell_setting            triclinic 
loop_ 
_symmetry_equiv_pos_as_xyz 
  x,y,z 
_cell_length_a                    41.45607071 
_cell_length_b                    41.22680496346839 
_cell_length_c                    46.53635880819179 
_cell_angle_alpha                 91.76695788788206 
_cell_angle_beta                  89.87196120090098 
_cell_angle_gamma                 121.9636200618719 
loop_ 
_atom_site_label 
_atom_site_type_symbol 
_atom_site_fract_x 
_atom_site_fract_y 
_atom_site_fract_z 
_atom_site_charge 
C1          C  0.35230530  0.14473125  0.98139446     0.02900
C2          C  0.31271594  0.12756859  0.98058073    -0.13300
C3          C  0.29661321  0.14926593  0.97495604     0.00400
C4          C  0.32048002  0.18897946  0.97244324    -0.11800
C5          C  0.36005570  0.20644483  0.97396926     0.02900
C6          C  0.37584751  0.18424828  0.97820965    -0.11200
H7          H  0.29447267  0.09695168  0.98294381     0.08500
H8          H  0.30840215  0.20609023  0.96796597     0.06000
H9          H  0.40645474  0.19757794  0.97777462     0.05800
C10         C  0.35018895  0.14013480  0.10646640     0.02900
C11         C  0.31040203  0.11764282  0.10915590    -0.13300
C12         C  0.28897212  0.13487325  0.11092754     0.00400
C13         C  0.30731175  0.17469998  0.10994611    -0.11800
C14         C  0.34694469  0.19768293  0.10827212     0.02900
C15         C  0.36817008  0.18022718  0.10591258    -0.11200
H16         H  0.29645569  0.08716737  0.11216159     0.08500
H17         H  0.29088907  0.18804351  0.11288526     0.06000
H18         H  0.39893629  0.19798506  0.10566401     0.05800
C19         C  0.13941679  0.36485211  0.36090983     0.02900
C20         C  0.17891685  0.38199148  0.36285708    -0.13300
C21         C  0.19473863  0.35989652  0.36771021     0.00400
C22         C  0.17079000  0.32002366  0.36882269    -0.11800
C23         C  0.13119925  0.30220745  0.36574609     0.02900
C24         C  0.11564789  0.32492285  0.36209278    -0.11200
H25         H  0.19725214  0.41282716  0.36200135     0.08500
H26         H  0.18288758  0.30299793  0.37353195     0.06000
H27         H  0.08505061  0.31172567  0.36151269     0.05800
C28         C  0.13537539  0.35988722  0.23154671     0.02900
C29         C  0.11794356  0.32024155  0.23384106    -0.13300
C30         C  0.13918414  0.30312582  0.23017406     0.00400
C31         C  0.17860087  0.32600294  0.22694508    -0.11800
C32         C  0.19651240  0.36578879  0.22584336     0.02900
C33         C  0.17488916  0.38269122  0.22830385    -0.11200
H34         H  0.08741226  0.30241579  0.23629315     0.08500
H35         H  0.19497597  0.31267650  0.22358691     0.06000
H36         H  0.18860094  0.41335317  0.22638419     0.05800
C37         C  0.06801404  0.45119000  0.37530874     0.42200
N38         N  0.02207724  0.45960037  0.38229600     0.01100
C39         C  0.03771289  0.12951860  0.42569544    -0.06800
H40         H  0.10579691  0.08612114  0.49252537     0.06600
C41         C  0.47606406  0.46683549  0.01343770    -0.07100
Co42       Co  0.04855436  0.04199370  0.39103353     0.74200
N43         N  0.07594265  0.06532103  0.45189808    -0.26300
Co44       Co  0.02298707  0.05780871  0.45837742     0.74100
C45         C  0.50843738  0.49434850  0.03130283     0.42300
N46         N  0.44751526  0.42030089  0.44666208     0.00700
N47         N  0.01088131  0.01913433  0.49082302     0.00800
N48         N  0.05249994  0.11695611  0.38175517    -0.47200
H49         H  0.11261957  0.51575660  0.37963479     0.06600
N50         N  0.08592350  0.05980115  0.42615925     0.01100
N51         N  0.46938919  0.04926013  0.46344882     0.00800
C52         C  0.42374349  0.05837650  0.46905159     0.42500
N53         N  0.45762953  0.41408465  0.42123803    -0.25800
C54         C  0.01361891  0.03991085  0.33136003    -0.06700
N55         N  0.02991043  0.43282115  0.37700443    -0.46900
N56         N  0.46186589  0.07634292  0.46811991    -0.47100
C57         C  0.48135614  0.01114431  0.31376294     0.42200
N58         N  0.04307659  0.08869632  0.39926507     0.01100
N59         N  0.41512412  0.44277724  0.39382065    -0.25800
N60         N  0.05274186  0.49437543  0.38386159    -0.26300
N61         N  0.40479370  0.44865991  0.41927494     0.00700
H62         H  0.38620549  0.42177986  0.35301215     0.06600
H63         H  0.37867570  0.99390018  0.46465752     0.06700
N64         N  0.03441017  0.09533277  0.42515767    -0.26300
N65         N  0.47977222  0.48472012  0.48904179    -0.25900
N66         N  0.47962921  0.48850614  0.35501630     0.01100
C67         C  0.13620892  0.08171933  0.45230931     0.42500
C68         C  0.45630954  0.38093518  0.42151678    -0.07200
N69         N  0.43847044  0.01466516  0.46151360    -0.25900
H70         H  0.45207076  0.43912837  0.01880660     0.06600
N71         N  0.12177936  0.06929185  0.42544855    -0.47200
H72         H  0.46146286  0.36771180  0.40313952     0.06600
C73         C  0.35463300  0.42584177  0.39266277     0.42300
C74         C  0.08343007  0.49198374  0.37978129    -0.06700
Co75       Co  0.46835575  0.45071402  0.38766787     0.73800
N76         N  0.43844144  0.39251951  0.46450103    -0.46900
C77         C  0.04919885  0.14374896  0.39657780     0.42600
N78         N  0.46182629  0.47987043  0.32973943    -0.46900
Co79       Co  0.44200026  0.46673258  0.45448292     0.73900
C80         C  0.40796918  0.01747966  0.46491120    -0.07200
C81         C  0.10564847  0.07861399  0.47005425    -0.06800
N82         N  0.01033314  0.02325547  0.35636334    -0.26300
N83         N  0.02856510  0.02638592  0.01607869    -0.47000
H84         H  0.03493448  0.14335294  0.44477672     0.06600
C85         C  0.38565165  0.42909525  0.37540309    -0.07200
Cl86       Cl  0.49547256  0.00435262  0.42286786    -0.50200
C87         C  0.44353379  0.36654781  0.45043568     0.42400
H88         H  0.03743053  0.06740790  0.32537464     0.06600
N89         N  0.36878900  0.43878032  0.41957712    -0.46900
C90         C  0.13424554  0.06199099  0.14877908     0.42200
N91         N  0.07902994  0.05441942  0.15098757     0.01100
C92         C  0.45381959  0.47646748  0.26384431    -0.06800
H93         H  0.98822847  0.38591862  0.21432194     0.06600
C94         C  0.42572818  0.38962391  0.12205525    -0.07100
Co95       Co  0.04498684  0.03000291  0.20897832     0.74200
N96         N  0.00642192  0.44520643  0.21024750    -0.26300
Co97       Co  0.45744070  0.44561750  0.20249449     0.74100
C98         C  0.42300713  0.35904403  0.13898213     0.42300
N99         N  0.48390480  0.48744613  0.10407589     0.00700
N100        N  0.44382919  0.40950841  0.16610320     0.00800
N101        N  0.01103068  0.03180025  0.26653220    -0.47200
H102        H  0.13073335  0.04261299  0.19522062     0.06600
N103        N  0.03983472  0.47740436  0.21311654     0.01100
N104        N  0.40968319  0.44790071  0.19406494     0.00800
C105        C  0.35476508  0.44098645  0.19723267     0.42500
N106        N  0.01708548  0.01995294  0.10658688    -0.25800
C107        C  0.05951075  0.11116531  0.22307397    -0.06700
N108        N  0.10837069  0.06541158  0.13385453    -0.46900
N109        N  0.38087284  0.43737942  0.21151973    -0.47100
C110        C  0.05941677  0.14068774  0.20647790     0.42200
N111        N  0.00468698  0.01489122  0.24076117     0.01100
N112        N  0.48176453  0.05687090  0.13454753    -0.25800
N113        N  0.08430063  0.04444219  0.17638670    -0.26300
N114        N  0.44822190  0.02484220  0.13196373     0.00700
H115        H  0.50039417  0.11618336  0.13045085     0.06600
H116        H  0.35751203  0.45945172  0.15036203     0.06700
N117        N  0.47157466  0.48227513  0.23863628    -0.26300
N118        N  0.43845828  0.41956056  0.14074543    -0.25900
N119        N  0.04307122  0.09154664  0.17885924     0.01100
C120        C  0.05109247  0.43363002  0.22126918     0.42500
C121        C  0.03536615  0.02640829  0.08163635    -0.07200
N122        N  0.40404376  0.45770175  0.16873816    -0.25900
H123        H  0.41651489  0.38847949  0.10012007     0.06600
N124        N  0.06749969  0.47178080  0.21966124    -0.47200
H125        H  0.06177438  0.05230449  0.07657784     0.06600
C126        C  0.43688381  0.06915953  0.12530507     0.42300
C127        C  0.11826884  0.04789414  0.17695484    -0.06700
Co128      Co  0.03074245  0.05627409  0.14246900     0.73800
N129        N  0.47799378  0.47131200  0.07803442    -0.46900
C130        C  0.48002685  0.00955412  0.28225049     0.42600
N131        N  0.04946416  0.12650761  0.17923579    -0.46900
Co132      Co  0.44314041  0.47201811  0.13591169     0.73900
C133        C  0.37015251  0.45445256  0.16864410    -0.07200
C134        C  0.01071788  0.41580228  0.21469914    -0.06800
N135        N  0.04892248  0.08189100  0.20415501    -0.26300
N136        N  0.43447968  0.37342934  0.16604429    -0.47000
H137        H  0.42746518  0.45079384  0.26933725     0.06600
C138        C  0.47758912  0.08646484  0.13044043    -0.07200
Cl139      Cl  0.49408330  0.00089985  0.17242826    -0.50200
C140        C  0.50939622  0.49405978  0.06273249     0.42400
H141        H  0.06829116  0.11225438  0.24511859     0.06600
N142        N  0.42053574  0.03085170  0.12620299    -0.46900
C143        C  0.09888897  0.20738960  0.19177519    -0.09400
C144        C  0.07895897  0.18198028  0.21373382     0.06800
C145        C  0.07860286  0.19681133  0.24141955    -0.03200
C146        C  0.09877131  0.23649698  0.24667419    -0.07600
C147        C  0.11937425  0.26156643  0.22474735     0.05900
C148        C  0.11885828  0.24675228  0.19700295    -0.02600
Br149      Br  0.14319667  0.27892328  0.16498579    -0.02300
H150        H  0.09919174  0.19665995  0.17029235     0.09800
H151        H  0.09812634  0.24787595  0.26782168     0.07800
Br152      Br  0.04917190  0.16488577  0.27219443    -0.02800
C153        C  0.26305912  0.38919183  0.23943908    -0.09400
C154        C  0.23739673  0.38898912  0.21988344     0.06800
C155        C  0.25085565  0.40849766  0.19411187    -0.03200
C156        C  0.28945063  0.42677959  0.18790401    -0.07600
C157        C  0.31524056  0.42562560  0.20679599     0.05900
C158        C  0.30171374  0.40741354  0.23335233    -0.02600
Br159      Br  0.33313914  0.40493401  0.26244121    -0.02300
H160        H  0.25274526  0.37438453  0.25939956     0.09800
H161        H  0.29881130  0.44076868  0.16762788     0.07800
Br162      Br  0.21743604  0.40820916  0.16543803    -0.01800
C163        C  0.06138925  0.38151493  0.20834403    -0.09400
C164        C  0.07172412  0.41419175  0.22547620     0.06800
C165        C  0.10216841  0.42819238  0.24536352    -0.03200
C166        C  0.12214029  0.40969596  0.24741201    -0.07600
C167        C  0.11222503  0.37729672  0.22990203     0.05900
C168        C  0.08162258  0.36334483  0.21002133    -0.02600
Br169      Br  0.06822350  0.32220504  0.18248636    -0.02300
H170        H  0.03841853  0.37096038  0.19265182     0.09800
H171        H  0.14545442  0.42055583  0.26282685     0.07800
Br172      Br  0.11652039  0.47112013  0.27116758    -0.02800
C173        C  0.09167982  0.19551362  0.36394766    -0.09400
C174        C  0.06566622  0.18336739  0.38662530     0.06800
C175        C  0.05768457  0.20985340  0.39948732    -0.03200
C176        C  0.07828563  0.24809319  0.39153049    -0.07600
C177        C  0.10626903  0.26062744  0.37039813     0.05900
C178        C  0.11169061  0.23354731  0.35569020    -0.02600
Br179      Br  0.14549666  0.24671373  0.32382718    -0.02300
H180        H  0.09739499  0.17558799  0.35293576     0.09800
H181        H  0.07308977  0.26841093  0.40252963     0.07800
Br182      Br  0.01815211  0.19614846  0.42687311    -0.02800
C183        C  0.25622945  0.36560506  0.35728737    -0.09400
C184        C  0.23604840  0.37834931  0.37320546     0.06800
C185        C  0.25518146  0.40672447  0.39517789    -0.03200
C186        C  0.29384825  0.42208567  0.40042978    -0.07600
C187        C  0.31422576  0.40944239  0.38455247     0.05900
C188        C  0.29477420  0.38037097  0.36291528    -0.02600
Br189      Br  0.31674804  0.35593396  0.34220176    -0.02300
H190        H  0.24157904  0.34322681  0.34078199     0.09800
H191        H  0.30792122  0.44362733  0.41755072     0.07800
Br192      Br  0.22971619  0.42340367  0.42052809    -0.02800
C193        C  0.13333629  0.41487365  0.38623165    -0.09400
C194        C  0.12311979  0.38912124  0.36256881     0.06800
C195        C  0.09619706  0.38562420  0.34230352    -0.03200
C196        C  0.07899642  0.40675617  0.34655348    -0.07600
C197        C  0.08876865  0.43186345  0.37051937     0.05900
C198        C  0.11646126  0.43623975  0.39032930    -0.02600
Br199      Br  0.12967491  0.46808611  0.42465995    -0.02300
H200        H  0.15356963  0.41735144  0.40219464     0.09800
H201        H  0.05786614  0.40355673  0.33112612     0.07800
Br202      Br  0.08272149  0.35323104  0.30832748    -0.02800
C203        C  0.40311572  0.13865011  0.13011854    -0.09400
C204        C  0.37345476  0.12264093  0.10949128     0.06800
C205        C  0.36570539  0.08951241  0.09353841    -0.03200
C206        C  0.38663956  0.07253952  0.09911345    -0.07600
C207        C  0.41610001  0.08853028  0.11987728     0.05900
C208        C  0.42450227  0.12219807  0.13528976    -0.02600
Br209      Br  0.46248781  0.14562864  0.16540129    -0.02300
H210        H  0.40906220  0.16362256  0.14298852     0.09800
H211        H  0.38025215  0.04700730  0.08682169     0.07800
Br212      Br  0.32846280  0.06741294  0.06288549    -0.02800
C213        C  0.35741984  0.25125215  0.14075574    -0.09400
C214        C  0.36603662  0.23933479  0.11484281     0.06800
C215        C  0.39272978  0.26715791  0.09645374    -0.03200
C216        C  0.41058870  0.30612896  0.10438786    -0.07600
C217        C  0.40274051  0.31787135  0.13076091     0.05900
C218        C  0.37530649  0.28995477  0.14879215    -0.02600
Br219      Br  0.35900977  0.30262248  0.18376002    -0.02300
H220        H  0.33671199  0.23018081  0.15502079     0.09800
H221        H  0.43111718  0.32731432  0.09011451     0.07800
Br222      Br  0.40479874  0.25331628  0.06011362    -0.02800
C223        C  0.18131491  0.07049750  0.11187855    -0.09400
C224        C  0.17396651  0.07852723  0.13987537     0.06800
C225        C  0.20476066  0.10410342  0.15818066    -0.03200
C226        C  0.24184546  0.12080155  0.14839429    -0.07600
C227        C  0.24921329  0.11309578  0.12044780     0.05900
C228        C  0.21871870  0.08747229  0.10210054    -0.02600
Br229      Br  0.22680030  0.07660575  0.06330059    -0.02300
H230        H  0.15788224  0.05131022  0.09749922     0.09800
H231        H  0.26523003  0.14103211  0.16242833     0.07800
Br232      Br  0.19863610  0.12120518  0.19549803    -0.02800
C233        C  0.35577307  0.09165961  0.45905844    -0.09400
C234        C  0.36879091  0.12067666  0.48058872     0.06800
C235        C  0.39911375  0.12799431  0.49890848    -0.03200
C236        C  0.41629546  0.10686916  0.49496464    -0.07600
C237        C  0.40340606  0.07817780  0.47325746     0.05900
C238        C  0.37280795  0.07046642  0.45520455    -0.02600
Br239      Br  0.35572286  0.03456438  0.42304665    -0.02300
H240        H  0.33325462  0.08653520  0.44430697     0.09800
H241        H  0.43983685  0.11283191  0.50894358     0.07800
Br242      Br  0.41756759  0.16559859  0.52996415    -0.02800
C243        C  0.42873671  0.30051387  0.44036172    -0.09400
C244        C  0.42693216  0.32663103  0.45941741     0.06800
C245        C  0.40591220  0.31283101  0.48500979    -0.03200
C246        C  0.38448514  0.27353506  0.48931940    -0.07600
C247        C  0.38483476  0.24764562  0.46940505     0.05900
C248        C  0.40792918  0.26137660  0.44511649    -0.02600
Br249      Br  0.40949048  0.22775691  0.41643229    -0.02300
H250        H  0.44525775  0.31013180  0.42101390     0.09800
H251        H  0.36709563  0.26300203  0.00824978     0.07800
Br252      Br  0.40444981  0.34489262  0.51523729    -0.02800
C253        C  0.19625823  0.08393875  0.44520969    -0.09400
C254        C  0.17668185  0.09842330  0.45986453     0.06800
C255        C  0.19695648  0.12989665  0.47946467    -0.03200
C256        C  0.23562087  0.14503829  0.98476704    -0.07600
C257        C  0.25512802  0.13044744  0.47014528     0.05900
C258        C  0.23512657  0.09986667  0.44981440    -0.02600
Br259      Br  0.25953145  0.08098644  0.42541293    -0.02300
H260        H  0.18139495  0.06061775  0.42942720     0.09800
H261        H  0.25087602  0.16918984  0.99982685     0.07800
Br262      Br  0.17563602  0.15700812  0.99699845    -0.02800
C263        C  0.35230560  0.14473185  0.48139461     0.02900
C264        C  0.31271622  0.12756912  0.48058108    -0.13300
C265        C  0.29661337  0.14926640  0.47495656     0.00400
C266        C  0.32048009  0.18897994  0.47244376    -0.11800
C267        C  0.36005580  0.20644536  0.47396957     0.02900
C268        C  0.37584770  0.18424888  0.47820977    -0.11200
H269        H  0.29447305  0.09695220  0.48294414     0.08500
H270        H  0.30840216  0.20609066  0.46796656     0.06000
H271        H  0.40645496  0.19757860  0.47777450     0.05800
C272        C  0.35018844  0.14013452  0.60646685     0.02900
C273        C  0.31040151  0.11764258  0.60915636    -0.13300
C274        C  0.28897167  0.13487309  0.61092802     0.00400
C275        C  0.30731138  0.17469983  0.60994656    -0.11800
C276        C  0.34694433  0.19768270  0.60827252     0.02900
C277        C  0.36816965  0.18022690  0.60591304    -0.11200
H278        H  0.29645513  0.08716712  0.61216202     0.08500
H279        H  0.29088876  0.18804341  0.61288567     0.06000
H280        H  0.39893586  0.19798472  0.60566454     0.05800
C281        C  0.13941635  0.36485160  0.86091030     0.02900
C282        C  0.17891640  0.38199096  0.86285778    -0.13300
C283        C  0.19473814  0.35989588  0.86771057     0.00400
C284        C  0.17078947  0.32002299  0.86882262    -0.11800
C285        C  0.13119874  0.30220683  0.86574596     0.02900
C286        C  0.11564743  0.32492231  0.86209285    -0.11200
H287        H  0.19725169  0.41282667  0.86200239     0.08500
H288        H  0.18288703  0.30299717  0.87353168     0.06000
H289        H  0.08505016  0.31172514  0.86151259     0.05800
C290        C  0.13537480  0.35988696  0.73154652     0.02900
C291        C  0.11794299  0.32024131  0.73384092    -0.13300
C292        C  0.13918360  0.30312560  0.73017392     0.00400
C293        C  0.17860032  0.32600274  0.72694496    -0.11800
C294        C  0.19651183  0.36578858  0.72584332     0.02900
C295        C  0.17488858  0.38269099  0.72830374    -0.11200
H296        H  0.08741170  0.30241555  0.73629300     0.08500
H297        H  0.19497546  0.31267632  0.72358679     0.06000
H298        H  0.18860032  0.41335293  0.72638409     0.05800
C299        C  0.06801346  0.45118930  0.87530927     0.42200
N300        N  0.02207669  0.45959973  0.88229626     0.01100
C301        C  0.03771240  0.12951808  0.92569514    -0.06800
H302        H  0.10579687  0.08612090  0.99252517     0.06600
C303        C  0.47606384  0.46683553  0.51343758    -0.07100
Co304      Co  0.04855398  0.04199318  0.89103343     0.74200
N305        N  0.07594249  0.06532076  0.95189792    -0.26300
Co306      Co  0.02298690  0.05780841  0.95837734     0.74100
C307        C  0.50843703  0.49434849  0.53130282     0.42300
N308        N  0.44751504  0.42030050  0.94666229     0.00700
N309        N  0.01088135  0.01913418  0.99082301     0.00800
N310        N  0.05249939  0.11695541  0.88175491    -0.47200
H311        H  0.11261902  0.51575591  0.87963510     0.06600
N312        N  0.08592322  0.05980076  0.92615908     0.01100
N313        N  0.46938901  0.04925972  0.96344889     0.00800
C314        C  0.42374326  0.05837596  0.96905187     0.42500
N315        N  0.45762909  0.41408408  0.92123820    -0.25800
C316        C  0.01361826  0.03991032  0.83136010    -0.06700
N317        N  0.02990987  0.43282047  0.87700495    -0.46900
N318        N  0.46186566  0.07634246  0.96812001    -0.47100
C319        C  0.48135553  0.01114371  0.81376308     0.42200
N320        N  0.04307618  0.08869575  0.89926491     0.01100
N321        N  0.41512371  0.44277672  0.89382091    -0.25800
N322        N  0.05274130  0.49437481  0.88386170    -0.26300
N323        N  0.40479336  0.44865939  0.91927524     0.00700
H324        H  0.38620493  0.42177927  0.85301249     0.06600
H325        H  0.37867553  0.99389962  0.96465797     0.06700
N326        N  0.03440980  0.09533229  0.92515749    -0.26300
N327        N  0.47977224  0.48471995  0.98904191    -0.25900
N328        N  0.47962868  0.48850547  0.85501639     0.01100
C329        C  0.13620875  0.08171903  0.95230904     0.42500
C330        C  0.45630900  0.38093457  0.92151699    -0.07200
N331        N  0.43847028  0.01466471  0.96151383    -0.25900
H332        H  0.45207049  0.43912844  0.51880640     0.06600
N333        N  0.12177909  0.06929144  0.92544832    -0.47200
H334        H  0.46146210  0.36771100  0.90313975     0.06600
C335        C  0.35463254  0.42584108  0.89266319     0.42300
C336        C  0.08342951  0.49198308  0.87978158    -0.06700
Co337      Co  0.46835528  0.45071344  0.88766802     0.73800
N338        N  0.43844136  0.39251925  0.96450132    -0.46900
C339        C  0.04919827  0.14374828  0.89657744     0.42600
N340        N  0.46182572  0.47986978  0.82973954    -0.46900
Co341      Co  0.44200009  0.46673221  0.95448313     0.73900
C342        C  0.40796900  0.01747912  0.96491157    -0.07200
C343        C  0.10564836  0.07861374  0.97005403    -0.06800
N344        N  0.01033264  0.02325489  0.85636337    -0.26300
N345        N  0.02856491  0.02638594  0.51607876    -0.47000
H346        H  0.03493397  0.14335249  0.94477635     0.06600
C347        C  0.38565117  0.42909467  0.87540342    -0.07200
Cl348      Cl  0.49547224  0.00435220  0.92286788    -0.50200
C349        C  0.44353352  0.36654743  0.95043599     0.42400
H350        H  0.03742984  0.06740740  0.82537471     0.06600
N351        N  0.36878864  0.43877969  0.91957751    -0.46900
C352        C  0.13424488  0.06199050  0.64877914     0.42200
N353        N  0.07902931  0.05441896  0.65098767     0.01100
C354        C  0.45381894  0.47646704  0.76384438    -0.06800
H355        H  0.98822794  0.38591836  0.71432178     0.06600
C356        C  0.42572767  0.38962357  0.62205527    -0.07100
Co357      Co  0.04498628  0.03000262  0.70897844     0.74200
N358        N  0.00642135  0.44520618  0.71024746    -0.26300
Co359      Co  0.45744010  0.44561723  0.70249452     0.74100
C360        C  0.42300681  0.35904380  0.63898218     0.42300
N361        N  0.48390428  0.48744592  0.60407589     0.00700
N362        N  0.44382870  0.40950820  0.66610321     0.00800
N363        N  0.01103001  0.03179980  0.76653234    -0.47200
H364        H  0.13073296  0.04261298  0.69522080     0.06600
N365        N  0.03983412  0.47740411  0.71311654     0.01100
N366        N  0.40968263  0.44790044  0.69406497     0.00800
C367        C  0.35476453  0.44098626  0.69723274     0.42500
N368        N  0.01708494  0.01995263  0.60658700    -0.25800
C369        C  0.05951024  0.11116507  0.72307409    -0.06700
N370        N  0.10837000  0.06541102  0.63385458    -0.46900
N371        N  0.38087228  0.43737920  0.71151979    -0.47100
C372        C  0.05941627  0.14068749  0.70647800     0.42200
N373        N  0.00468634  0.01489084  0.74076128     0.01100
N374        N  0.48176391  0.05687051  0.63454762    -0.25800
N375        N  0.08430008  0.04444188  0.67638684    -0.26300
N376        N  0.44822127  0.02484182  0.63196383     0.00700
H377        H  0.50039358  0.11618298  0.63045095     0.06600
H378        H  0.35751148  0.45945150  0.65036211     0.06700
N379        N  0.47157399  0.48227481  0.73863632    -0.26300
N380        N  0.43845770  0.41956026  0.64074540    -0.25900
N381        N  0.04307066  0.09154634  0.67885937     0.01100
C382        C  0.05109193  0.43362978  0.72126905     0.42500
C383        C  0.03536562  0.02640809  0.58163648    -0.07200
N384        N  0.40404318  0.45770146  0.66873820    -0.25900
H385        H  0.41651431  0.38847904  0.60012005     0.06600
N386        N  0.06749913  0.47178056  0.71966119    -0.47200
H387        H  0.06177387  0.05230431  0.57657802     0.06600
C388        C  0.43688322  0.06915916  0.62530515     0.42300
C389        C  0.11826831  0.04789390  0.67695498    -0.06700
Co390      Co  0.03074187  0.05627373  0.64246912     0.73800
N391        N  0.47799325  0.47131185  0.57803438    -0.46900
C392        C  0.48002618  0.00955372  0.78225063     0.42600
N393        N  0.04946361  0.12650731  0.67923590    -0.46900
Co394      Co  0.44313983  0.47201781  0.63591169     0.73900
C395        C  0.37015194  0.45445231  0.66864416    -0.07200
C396        C  0.01071734  0.41580203  0.71469901    -0.06800
N397        N  0.04892193  0.08189072  0.70415515    -0.26300
N398        N  0.43447937  0.37342921  0.66604431    -0.47000
H399        H  0.42746462  0.45079331  0.76933732     0.06600
C400        C  0.47758852  0.08646446  0.63044052    -0.07200
Cl401      Cl  0.49408268  0.00089947  0.67242838    -0.50200
C402        C  0.50939572  0.49405966  0.56273249     0.42400
H403        H  0.06829071  0.11225421  0.74511871     0.06600
N404        N  0.42053513  0.03085133  0.62620309    -0.46900
C405        C  0.09888828  0.20738931  0.69177515    -0.09400
C406        C  0.07895854  0.18198006  0.71373387     0.06800
C407        C  0.07860260  0.19681120  0.74141960    -0.03200
C408        C  0.09877096  0.23649684  0.74667415    -0.07600
C409        C  0.11937375  0.26156623  0.72474726     0.05900
C410        C  0.11885763  0.24675200  0.69700284    -0.02600
Br411      Br  0.14319573  0.27892276  0.66498550    -0.02300
H412        H  0.09919077  0.19665961  0.67029228     0.09800
H413        H  0.09812604  0.24787588  0.76782166     0.07800
Br414      Br  0.04917172  0.16488577  0.77219454    -0.02800
C415        C  0.26305856  0.38919161  0.73943914    -0.09400
C416        C  0.23739618  0.38898892  0.71988347     0.06800
C417        C  0.25085514  0.40849754  0.69411195    -0.03200
C418        C  0.28945014  0.42677958  0.68790414    -0.07600
C419        C  0.31524004  0.42562553  0.70679611     0.05900
C420        C  0.30171322  0.40741344  0.73335242    -0.02600
Br421      Br  0.33313883  0.40493429  0.76244132    -0.02300
H422        H  0.25274467  0.37438428  0.75939960     0.09800
H423        H  0.29881083  0.44076877  0.66762806     0.07800
Br424      Br  0.21743562  0.40820919  0.66543811    -0.01800
C425        C  0.06138859  0.38151463  0.70834398    -0.09400
C426        C  0.07172356  0.41419150  0.72547611     0.06800
C427        C  0.10216792  0.42819216  0.74536340    -0.03200
C428        C  0.12213979  0.40969573  0.74741179    -0.07600
C429        C  0.11222446  0.37729647  0.72990184     0.05900
C430        C  0.08162191  0.36334452  0.71002122    -0.02600
Br431      Br  0.06822271  0.32220475  0.68248623    -0.02300
H432        H  0.03841780  0.37096007  0.69265179     0.09800
H433        H  0.14545402  0.42055562  0.76282658     0.07800
Br434      Br  0.11652017  0.47112009  0.77116741    -0.02800
C435        C  0.09167921  0.19551295  0.86394724    -0.09400
C436        C  0.06566552  0.18336666  0.88662483     0.06800
C437        C  0.05768374  0.20985260  0.89948678    -0.03200
C438        C  0.07828488  0.24809243  0.89153006    -0.07600
C439        C  0.10626845  0.26062678  0.87039784     0.05900
C440        C  0.11169008  0.23354670  0.85568987    -0.02600
Br441      Br  0.14549620  0.24671319  0.82382686    -0.02300
H442        H  0.09739440  0.17558735  0.85293535     0.09800
H443        H  0.07308892  0.26841012  0.90252919     0.07800
Br444      Br  0.01815100  0.19614757  0.92687235    -0.02800
C445        C  0.25622901  0.36560450  0.85728769    -0.09400
C446        C  0.23604788  0.37834855  0.87320594     0.06800
C447        C  0.25518086  0.40672342  0.89517857    -0.03200
C448        C  0.29384766  0.42208462  0.90043045    -0.07600
C449        C  0.31422525  0.40944160  0.88455295     0.05900
C450        C  0.29477376  0.38037038  0.86291560    -0.02600
Br451      Br  0.31674759  0.35593346  0.84220187    -0.02300
H452        H  0.24157866  0.34322644  0.84078219     0.09800
H453        H  0.30792053  0.44362609  0.91755150     0.07800
Br454      Br  0.22971553  0.42340230  0.92052903    -0.02800
C455        C  0.13333540  0.41487268  0.88623241    -0.09400
C456        C  0.12311930  0.38912067  0.86256934     0.06800
C457        C  0.09619689  0.38562391  0.84230387    -0.03200
C458        C  0.07899617  0.40675582  0.84655384    -0.07600
C459        C  0.08876805  0.43186274  0.87051994     0.05900
C460        C  0.11646031  0.43623872  0.89033008    -0.02600
Br461      Br  0.12967354  0.46808475  0.92466089    -0.02300
H462        H  0.15356851  0.41735022  0.90219552     0.09800
H463        H  0.05786615  0.40355663  0.83112638     0.07800
Br464      Br  0.08272182  0.35323114  0.80832760    -0.02800
C465        C  0.40311499  0.13864958  0.63011907    -0.09400
C466        C  0.37345419  0.12264061  0.60949167     0.06800
C467        C  0.36570499  0.08951235  0.59353854    -0.03200
C468        C  0.38663917  0.07253943  0.59911347    -0.07600
C469        C  0.41609943  0.08852993  0.61987744     0.05900
C470        C  0.42450152  0.12219749  0.63529017    -0.02600
Br471      Br  0.46248685  0.14562760  0.66540186    -0.02300
H472        H  0.40906138  0.16362189  0.64298919     0.09800
H473        H  0.38025189  0.04700739  0.58682152     0.07800
Br474      Br  0.32846261  0.06741329  0.56288542    -0.02800
C475        C  0.35741939  0.25125203  0.64075597    -0.09400
C476        C  0.36603629  0.23933456  0.61484315     0.06800
C477        C  0.39272966  0.26715757  0.59645411    -0.03200
C478        C  0.41058858  0.30612864  0.60438817    -0.07600
C479        C  0.40274022  0.31787112  0.63076110     0.05900
C480        C  0.37530601  0.28995464  0.64879232    -0.02600
Br481      Br  0.35900915  0.30262253  0.68376008    -0.02300
H482        H  0.33671141  0.23018072  0.65502103     0.09800
H483        H  0.43111724  0.32731396  0.59011486     0.07800
Br484      Br  0.40479901  0.25331579  0.56011418    -0.02800
C485        C  0.18131451  0.07049628  0.61187907    -0.09400
C486        C  0.17396588  0.07852698  0.63987551     0.06800
C487        C  0.20475984  0.10410428  0.65818051    -0.03200
C488        C  0.24184469  0.12080248  0.64839428    -0.07600
C489        C  0.24921277  0.11309570  0.62044817     0.05900
C490        C  0.21871836  0.08747112  0.60210118    -0.02600
Br491      Br  0.22680033  0.07660299  0.56330178    -0.02300
H492        H  0.15788193  0.05130811  0.59749993     0.09800
H493        H  0.26522910  0.14103376  0.66242813     0.07800
Br494      Br  0.19863479  0.12120718  0.69549727    -0.02800
C495        C  0.35577264  0.09165876  0.95905864    -0.09400
C496        C  0.36879057  0.12067600  0.98058878     0.06800
C497        C  0.39911347  0.12799380  0.99890853    -0.03200
C498        C  0.41629522  0.10686866  0.99496479    -0.07600
C499        C  0.40340578  0.07817718  0.97325770     0.05900
C500        C  0.37280753  0.07046556  0.95520487    -0.02600
Br501      Br  0.35572233  0.03456328  0.92304715    -0.02300
H502        H  0.33325416  0.08653422  0.94430718     0.09800
H503        H  0.43983666  0.11283154  0.00894371     0.07800
Br504      Br  0.41756736  0.16559825  0.02996406    -0.02800
C505        C  0.42873792  0.30051395  0.94036266    -0.09400
C506        C  0.42693191  0.32663069  0.95941781     0.06800
C507        C  0.40591066  0.31283029  0.98500960    -0.03200
C508        C  0.38448380  0.27353430  0.98931905    -0.07600
C509        C  0.38483474  0.24764519  0.96940509     0.05900
C510        C  0.40793051  0.26137663  0.94511724    -0.02600
Br511      Br  0.40949402  0.22775757  0.91643366    -0.02300
H512        H  0.44526013  0.31013228  0.92101540     0.09800
H513        H  0.36709790  0.26300309  0.50825060     0.07800
Br514      Br  0.40444596  0.34489139  0.01523637    -0.02800
C515        C  0.19625805  0.08393854  0.94520917    -0.09400
C516        C  0.17668171  0.09842304  0.95986413     0.06800
C517        C  0.19695639  0.12989628  0.97946436    -0.03200
C518        C  0.23562096  0.14503870  0.48476743    -0.07600
C519        C  0.25512788  0.13044708  0.97014476     0.05900
C520        C  0.23512637  0.09986637  0.94981386    -0.02600
Br521      Br  0.25953120  0.08098589  0.92541258    -0.02300
H522        H  0.18139472  0.06061755  0.92942665     0.09800
H523        H  0.25087610  0.16919039  0.49982714     0.07800
Br524      Br  0.17563602  0.15700864  0.49699836    -0.02800
C525        C  0.35230500  0.64473119  0.98139450     0.02900
C526        C  0.31271563  0.62756852  0.98058074    -0.13300
C527        C  0.29661292  0.64926587  0.97495599     0.00400
C528        C  0.32047974  0.68897938  0.97244311    -0.11800
C529        C  0.36005545  0.70644476  0.97396920     0.02900
C530        C  0.37584721  0.68424820  0.97820967    -0.11200
H531        H  0.29447238  0.59695167  0.98294387     0.08500
H532        H  0.30840187  0.70609012  0.96796576     0.06000
H533        H  0.40645445  0.69757785  0.97777467     0.05800
C534        C  0.35018890  0.64013481  0.10646615     0.02900
C535        C  0.31040200  0.61764281  0.10915576    -0.13300
C536        C  0.28897206  0.63487319  0.11092740     0.00400
C537        C  0.30731166  0.67469993  0.10994602    -0.11800
C538        C  0.34694458  0.69768288  0.10827193     0.02900
C539        C  0.36817000  0.68022718  0.10591231    -0.11200
H540        H  0.29645572  0.58716738  0.11216157     0.08500
H541        H  0.29088899  0.68804343  0.11288528     0.06000
H542        H  0.39893620  0.69798508  0.10566371     0.05800
C543        C  0.13941696  0.86485218  0.36090960     0.02900
C544        C  0.17891702  0.88199156  0.36285686    -0.13300
C545        C  0.19473882  0.85989663  0.36770997     0.00400
C546        C  0.17079021  0.82002377  0.36882247    -0.11800
C547        C  0.13119947  0.80220753  0.36574588     0.02900
C548        C  0.11564810  0.82492291  0.36209254    -0.11200
H549        H  0.19725231  0.91282728  0.36200114     0.08500
H550        H  0.18288785  0.80299808  0.37353175     0.06000
H551        H  0.08505082  0.81172569  0.36151243     0.05800
C552        C  0.13537550  0.85988719  0.23154692     0.02900
C553        C  0.11794363  0.82024154  0.23384125    -0.13300
C554        C  0.13918416  0.80312576  0.23017411     0.00400
C555        C  0.17860087  0.82600283  0.22694504    -0.11800
C556        C  0.19651244  0.86578868  0.22584342     0.02900
C557        C  0.17488927  0.88269119  0.22830403    -0.11200
H558        H  0.08741235  0.80241584  0.23629340     0.08500
H559        H  0.19497596  0.81267634  0.22358677     0.06000
H560        H  0.18860106  0.91335310  0.22638442     0.05800
C561        C  0.06801396  0.95118981  0.37530883     0.42200
N562        N  0.02207724  0.95960023  0.38229623     0.01100
C563        C  0.03771275  0.62951863  0.42569516    -0.06800
H564        H  0.10579680  0.58612108  0.49252515     0.06600
C565        C  0.47606433  0.96683566  0.01343754    -0.07100
Co566      Co  0.04855424  0.54199375  0.39103331     0.74200
N567        N  0.07594254  0.56532111  0.45189785    -0.26300
Co568      Co  0.02298693  0.55780876  0.45837720     0.74100
C569        C  0.50843763  0.99434867  0.03130267     0.42300
N570        N  0.44751533  0.92030094  0.44666205     0.00700
N571        N  0.01088128  0.51913449  0.49082285     0.00800
N572        N  0.05249982  0.61695607  0.38175493    -0.47200
H573        H  0.11261954  0.01575639  0.37963496     0.06600
N574        N  0.08592338  0.55980127  0.42615901     0.01100
N575        N  0.46938887  0.54925994  0.46344902     0.00800
C576        C  0.42374311  0.55837622  0.46905181     0.42500
N577        N  0.45762958  0.91408460  0.42123802    -0.25800
C578        C  0.01361862  0.53991082  0.33135981    -0.06700
N579        N  0.02991037  0.93282098  0.37700458    -0.46900
N580        N  0.46186551  0.57634269  0.46812011    -0.47100
C581        C  0.48135607  0.51114445  0.31376301     0.42200
N582        N  0.04307642  0.58869629  0.39926485     0.01100
N583        N  0.41512433  0.94277732  0.39382052    -0.25800
N584        N  0.05274187  0.99437529  0.38386182    -0.26300
N585        N  0.40479389  0.94866003  0.41927482     0.00700
H586        H  0.38620571  0.92177985  0.35301204     0.06600
H587        H  0.37867539  0.49389985  0.46465774     0.06700
N588        N  0.03441002  0.59533277  0.42515743    -0.26300
N589        N  0.47977238  0.98472026  0.48904176    -0.25900
N590        N  0.47962945  0.98850603  0.35501621     0.01100
C591        C  0.13620879  0.58171936  0.45230906     0.42500
C592        C  0.45630943  0.88093506  0.42151680    -0.07200
N593        N  0.43847015  0.51466495  0.46151381    -0.25900
H594        H  0.45207105  0.93912855  0.01880644     0.06600
N595        N  0.12177926  0.56929197  0.42544829    -0.47200
H596        H  0.46146261  0.86771156  0.40313955     0.06600
C597        C  0.35463318  0.92584181  0.39266263     0.42300
C598        C  0.08343003  0.99198354  0.37978147    -0.06700
Co599      Co  0.46835592  0.95071397  0.38766784     0.73800
N600        N  0.43844139  0.89251955  0.46450102    -0.46900
C601        C  0.04919874  0.64374893  0.39657751     0.42600
N602        N  0.46182642  0.97987033  0.32973941    -0.46900
Co603      Co  0.44200047  0.96673273  0.45448282     0.73900
C604        C  0.40796884  0.51747936  0.46491144    -0.07200
C605        C  0.10564834  0.57861399  0.47005402    -0.06800
N606        N  0.01033296  0.52325545  0.35636312    -0.26300
N607        N  0.02856509  0.52638614  0.01607854    -0.47000
H608        H  0.03493439  0.64335305  0.44477638     0.06600
C609        C  0.38565187  0.92909530  0.37540298    -0.07200
Cl610      Cl  0.49547229  0.50435261  0.42286794    -0.50200
C611        C  0.44353362  0.86654775  0.45043572     0.42400
H612        H  0.03743018  0.56740790  0.32537441     0.06600
N613        N  0.36878920  0.93878040  0.41957698    -0.46900
C614        C  0.13424563  0.56199130  0.14877921     0.42200
N615        N  0.07902990  0.55441945  0.15098759     0.01100
C616        C  0.45381968  0.97646727  0.26384424    -0.06800
H617        H  0.98822866  0.88591864  0.21432195     0.06600
C618        C  0.42572831  0.88962385  0.12205505    -0.07100
Co619      Co  0.04498669  0.53000289  0.20897828     0.74200
N620        N  0.00642210  0.94520646  0.21024753    -0.26300
Co621      Co  0.45744082  0.94561743  0.20249437     0.74100
C622        C  0.42300728  0.85904398  0.13898193     0.42300
N623        N  0.48390496  0.98744618  0.10407576     0.00700
N624        N  0.44382935  0.90950839  0.16610301     0.00800
N625        N  0.01103037  0.53180012  0.26653207    -0.47200
H626        H  0.13073335  0.54261326  0.19522077     0.06600
N627        N  0.03983488  0.97740438  0.21311658     0.01100
N628        N  0.40968334  0.94790068  0.19406485     0.00800
C629        C  0.35476506  0.94098614  0.19723250     0.42500
N630        N  0.01708554  0.51995303  0.10658683    -0.25800
C631        C  0.05951063  0.61116530  0.22307394    -0.06700
N632        N  0.10837072  0.56541172  0.13385459    -0.46900
N633        N  0.38087291  0.93737927  0.21151960    -0.47100
C634        C  0.05941665  0.64068774  0.20647790     0.42200
N635        N  0.00468673  0.51489110  0.24076104     0.01100
N636        N  0.48176452  0.55687102  0.13454754    -0.25800
N637        N  0.08430058  0.54444225  0.17638673    -0.26300
N638        N  0.44822188  0.52484231  0.13196379     0.00700
H639        H  0.50039415  0.61618348  0.13045076     0.06600
H640        H  0.35751203  0.95945136  0.15036184     0.06700
N641        N  0.47157474  0.98227497  0.23863620    -0.26300
N642        N  0.43845843  0.91956053  0.14074523    -0.25900
N643        N  0.04307105  0.59154665  0.17885923     0.01100
C644        C  0.05109266  0.93363005  0.22126916     0.42500
C645        C  0.03536620  0.52640846  0.08163630    -0.07200
N646        N  0.40404387  0.95770166  0.16873805    -0.25900
H647        H  0.41651497  0.88847939  0.10011988     0.06600
N648        N  0.06749987  0.97178082  0.21966126    -0.47200
H649        H  0.06177440  0.55230472  0.07657779     0.06600
C650        C  0.43688378  0.56915963  0.12530502     0.42300
C651        C  0.11826886  0.54789436  0.17695495    -0.06700
Co652      Co  0.03074239  0.55627412  0.14246897     0.73800
N653        N  0.47799397  0.97131209  0.07803425    -0.46900
C654        C  0.48002679  0.50955431  0.28225056     0.42600
N655        N  0.04946398  0.62650762  0.17923580    -0.46900
Co656      Co  0.44314051  0.97201806  0.13591156     0.73900
C657        C  0.37015255  0.95445231  0.16864396    -0.07200
C658        C  0.01071807  0.91580230  0.21469913    -0.06800
N659        N  0.04892235  0.58189100  0.20415498    -0.26300
N660        N  0.43447984  0.87342932  0.16604409    -0.47000
H661        H  0.42746531  0.95079361  0.26933717     0.06600
C662        C  0.47758909  0.58646494  0.13044038    -0.07200
Cl663      Cl  0.49408323  0.50089989  0.17242833    -0.50200
C664        C  0.50939642  0.99405991  0.06273235     0.42400
H665        H  0.06829110  0.61225439  0.24511855     0.06600
N666        N  0.42053573  0.53085180  0.12620300    -0.46900
C667        C  0.09888867  0.70738961  0.19177516    -0.09400
C668        C  0.07895888  0.68198028  0.21373385     0.06800
C669        C  0.07860298  0.69681131  0.24141964    -0.03200
C670        C  0.09877149  0.73649694  0.24667427    -0.07600
C671        C  0.11937419  0.76156640  0.22474737     0.05900
C672        C  0.11885798  0.74675229  0.19700290    -0.02600
Br673      Br  0.14319610  0.77892327  0.16498564    -0.02300
H674        H  0.09919125  0.69665998  0.17029229     0.09800
H675        H  0.09812672  0.74787592  0.26782183     0.07800
Br676      Br  0.04917211  0.66488580  0.27219460    -0.02800
C677        C  0.26305918  0.88919164  0.23943903    -0.09400
C678        C  0.23739675  0.88898899  0.21988344     0.06800
C679        C  0.25085562  0.90849752  0.19411187    -0.03200
C680        C  0.28945060  0.92677939  0.18790393    -0.07600
C681        C  0.31524054  0.92562531  0.20679587     0.05900
C682        C  0.30171376  0.90741330  0.23335221    -0.02600
Br683      Br  0.33313920  0.90493373  0.26244103    -0.02300
H684        H  0.25274537  0.87438433  0.25939951     0.09800
H685        H  0.29881123  0.94076848  0.16762784     0.07800
Br686      Br  0.21743599  0.90820917  0.16543807    -0.01800
C687        C  0.06138927  0.88151479  0.20834425    -0.09400
C688        C  0.07172430  0.91419178  0.22547627     0.06800
C689        C  0.10216862  0.92819248  0.24536357    -0.03200
C690        C  0.12214044  0.90969600  0.24741212    -0.07600
C691        C  0.11222511  0.87729667  0.22990222     0.05900
C692        C  0.08162255  0.86334465  0.21002159    -0.02600
Br693      Br  0.06822333  0.82220481  0.18248661    -0.02300
H694        H  0.03841848  0.87096017  0.19265208     0.09800
H695        H  0.14545461  0.92055592  0.26282693     0.07800
Br696      Br  0.11652070  0.97112039  0.27116754    -0.02800
C697        C  0.09167996  0.69551364  0.36394748    -0.09400
C698        C  0.06566616  0.68336738  0.38662498     0.06800
C699        C  0.05768441  0.70985337  0.39948688    -0.03200
C700        C  0.07828563  0.74809321  0.39153013    -0.07600
C701        C  0.10626921  0.76062749  0.37039791     0.05900
C702        C  0.11169085  0.73354735  0.35569003    -0.02600
Br703      Br  0.14549729  0.74671375  0.32382722    -0.02300
H704        H  0.09739523  0.67558802  0.35293571     0.09800
H705        H  0.07308971  0.76841094  0.40252922     0.07800
Br706      Br  0.01815176  0.69614843  0.42687249    -0.02800
C707        C  0.25622969  0.86560525  0.35728710    -0.09400
C708        C  0.23604860  0.87834943  0.37320523     0.06800
C709        C  0.25518163  0.90672454  0.39517770    -0.03200
C710        C  0.29384841  0.92208572  0.40042962    -0.07600
C711        C  0.31422596  0.90944249  0.38455229     0.05900
C712        C  0.29477445  0.88037117  0.36291501    -0.02600
Br713      Br  0.31674834  0.85593428  0.34220135    -0.02300
H714        H  0.24157932  0.84322708  0.34078167     0.09800
H715        H  0.30792129  0.94362732  0.41755060     0.07800
Br716      Br  0.22971634  0.92340369  0.42052789    -0.02800
C717        C  0.13333652  0.91487377  0.38623145    -0.09400
C718        C  0.12311990  0.88912126  0.36256864     0.06800
C719        C  0.09619697  0.88562406  0.34230348    -0.03200
C720        C  0.07899617  0.90675587  0.34655355    -0.07600
C721        C  0.08876857  0.93186327  0.37051939     0.05900
C722        C  0.11646143  0.93623982  0.39032916    -0.02600
Br723      Br  0.12967527  0.96808639  0.42465973    -0.02300
H724        H  0.15357002  0.91735168  0.40219435     0.09800
H725        H  0.05786568  0.90355624  0.33112635     0.07800
Br726      Br  0.08272128  0.85323081  0.30832748    -0.02800
C727        C  0.40311574  0.63865024  0.13011823    -0.09400
C728        C  0.37345474  0.62264098  0.10949103     0.06800
C729        C  0.36570529  0.58951239  0.09353825    -0.03200
C730        C  0.38663947  0.57253950  0.09911333    -0.07600
C731        C  0.41609994  0.58853033  0.11987714     0.05900
C732        C  0.42450225  0.62219819  0.13528952    -0.02600
Br733      Br  0.46248793  0.64562896  0.16540090    -0.02300
H734        H  0.40906232  0.66362282  0.14298813     0.09800
H735        H  0.38025200  0.54700722  0.08682165     0.07800
Br736      Br  0.32846241  0.56741269  0.06288550    -0.02800
C737        C  0.35741977  0.75125210  0.14075554    -0.09400
C738        C  0.36603648  0.73933472  0.11484260     0.06800
C739        C  0.39272955  0.76715777  0.09645346    -0.03200
C740        C  0.41058859  0.80612884  0.10438760    -0.07600
C741        C  0.40274056  0.81787127  0.13076073     0.05900
C742        C  0.37530647  0.78995473  0.14879197    -0.02600
Br743      Br  0.35900997  0.80262250  0.18375997    -0.02300
H744        H  0.33671196  0.73018077  0.15502061     0.09800
H745        H  0.43111697  0.82731413  0.09011418     0.07800
Br746      Br  0.40479807  0.75331603  0.06011318    -0.02800
C747        C  0.18131483  0.57049812  0.11187841    -0.09400
C748        C  0.17396658  0.57852740  0.13987543     0.06800
C749        C  0.20476087  0.60410307  0.15818082    -0.03200
C750        C  0.24184562  0.62080108  0.14839436    -0.07600
C751        C  0.24921327  0.61309572  0.12044770     0.05900
C752        C  0.21871857  0.58747280  0.10210032    -0.02600
Br753      Br  0.22680009  0.57660689  0.06330016    -0.02300
H754        H  0.15788208  0.55131129  0.09749898     0.09800
H755        H  0.26523032  0.64103125  0.16242845     0.07800
Br756      Br  0.19863659  0.62120439  0.19549847    -0.02800
C757        C  0.35577262  0.59165924  0.45905872    -0.09400
C758        C  0.36879067  0.62067655  0.48058884     0.06800
C759        C  0.39911368  0.62799438  0.49890850    -0.03200
C760        C  0.41629534  0.60686916  0.49496468    -0.07600
C761        C  0.40340570  0.57817754  0.47325768     0.05900
C762        C  0.37280743  0.57046598  0.45520490    -0.02600
Br763      Br  0.35572208  0.53456356  0.42304725    -0.02300
H764        H  0.33325404  0.58653464  0.44430731     0.09800
H765        H  0.43983685  0.61283203  0.50894351     0.07800
Br766      Br  0.41756766  0.66559884  0.52996410    -0.02800
C767        C  0.42873693  0.80051393  0.44036207    -0.09400
C768        C  0.42693182  0.82663097  0.45941752     0.06800
C769        C  0.40591131  0.81283087  0.48500966    -0.03200
C770        C  0.38448438  0.77353492  0.48931928    -0.07600
C771        C  0.38483458  0.74764557  0.46940514     0.05900
C772        C  0.40792945  0.76137667  0.44511684    -0.02600
Br773      Br  0.40949155  0.72775721  0.41643291    -0.02300
H774        H  0.44525841  0.81013195  0.42101449     0.09800
H775        H  0.36709472  0.76300184  0.00824942     0.07800
Br776      Br  0.40444792  0.84489231  0.51523682    -0.02800
C777        C  0.19625808  0.58393871  0.44520958    -0.09400
C778        C  0.17668169  0.59842332  0.45986432     0.06800
C779        C  0.19695631  0.62989672  0.47946444    -0.03200
C780        C  0.23562061  0.64503833  0.98476692    -0.07600
C781        C  0.25512782  0.63044740  0.47014520     0.05900
C782        C  0.23512637  0.59986657  0.44981437    -0.02600
Br783      Br  0.25953125  0.58098618  0.42541312    -0.02300
H784        H  0.18139478  0.56061763  0.42942710     0.09800
H785        H  0.25087581  0.66919003  0.99982658     0.07800
Br786      Br  0.17563585  0.65700840  0.99699803    -0.02800
C787        C  0.35230537  0.64473176  0.48139463     0.02900
C788        C  0.31271599  0.62756905  0.48058110    -0.13300
C789        C  0.29661318  0.64926635  0.47495651     0.00400
C790        C  0.32047991  0.68897987  0.47244365    -0.11800
C791        C  0.36005561  0.70644528  0.47396955     0.02900
C792        C  0.37584750  0.68424877  0.47820979    -0.11200
H793        H  0.29447280  0.59695219  0.48294421     0.08500
H794        H  0.30840198  0.70609058  0.46796636     0.06000
H795        H  0.40645473  0.69757845  0.47777458     0.05800
C796        C  0.35018831  0.64013447  0.60646657     0.02900
C797        C  0.31040140  0.61764252  0.60915614    -0.13300
C798        C  0.28897154  0.63487298  0.61092786     0.00400
C799        C  0.30731121  0.67469973  0.60994639    -0.11800
C800        C  0.34694417  0.69768262  0.60827232     0.02900
C801        C  0.36816951  0.68022686  0.60591280    -0.11200
H802        H  0.29645506  0.58716705  0.61216182     0.08500
H803        H  0.29088861  0.68804328  0.61288555     0.06000
H804        H  0.39893574  0.69798470  0.60566430     0.05800
C805        C  0.13941655  0.86485162  0.86091006     0.02900
C806        C  0.17891659  0.88199096  0.86285759    -0.13300
C807        C  0.19473832  0.85989590  0.86771047     0.00400
C808        C  0.17078966  0.82002302  0.86882257    -0.11800
C809        C  0.13119895  0.80220687  0.86574582     0.02900
C810        C  0.11564763  0.82492233  0.86209263    -0.11200
H811        H  0.19725190  0.91282666  0.86200213     0.08500
H812        H  0.18288722  0.80299722  0.87353169     0.06000
H813        H  0.08505036  0.81172516  0.86151235     0.05800
C814        C  0.13537500  0.85988693  0.73154686     0.02900
C815        C  0.11794316  0.82024129  0.73384130    -0.13300
C816        C  0.13918368  0.80312551  0.73017419     0.00400
C817        C  0.17860041  0.82600260  0.72694513    -0.11800
C818        C  0.19651197  0.86578844  0.72584351     0.02900
C819        C  0.17488879  0.88269094  0.72830405    -0.11200
H820        H  0.08741186  0.80241557  0.73629347     0.08500
H821        H  0.19497549  0.81267612  0.72358685     0.06000
H822        H  0.18860058  0.91335285  0.72638443     0.05800
C823        C  0.06801354  0.95118921  0.87530926     0.42200
N824        N  0.02207681  0.95959972  0.88229628     0.01100
C825        C  0.03771209  0.62951810  0.92569490    -0.06800
H826        H  0.10579657  0.58612091  0.99252496     0.06600
C827        C  0.47606398  0.96683573  0.51343755    -0.07100
Co828      Co  0.04855371  0.54199317  0.89103328     0.74200
N829        N  0.07594222  0.56532082  0.95189770    -0.26300
Co830      Co  0.02298664  0.55780847  0.95837716     0.74100
C831        C  0.50843721  0.99434858  0.53130278     0.42300
N832        N  0.44751522  0.92030058  0.94666225     0.00700
N833        N  0.01088121  0.51913435  0.99082291     0.00800
N834        N  0.05249917  0.61695543  0.88175470    -0.47200
H835        H  0.11261913  0.01575581  0.87963512     0.06600
N836        N  0.08592298  0.55980083  0.92615888     0.01100
N837        N  0.46938863  0.54925957  0.96344913     0.00800
C838        C  0.42374282  0.55837576  0.96905197     0.42500
N839        N  0.45762932  0.91408414  0.92123819    -0.25800
C840        C  0.01361789  0.53991010  0.83135992    -0.06700
N841        N  0.02990994  0.93282041  0.87700492    -0.46900
N842        N  0.46186522  0.57634229  0.96812018    -0.47100
C843        C  0.48135544  0.51114383  0.81376313     0.42200
N844        N  0.04307593  0.58869577  0.89926472     0.01100
N845        N  0.41512394  0.94277674  0.89382078    -0.25800
N846        N  0.05274145  0.99437477  0.88386177    -0.26300
N847        N  0.40479362  0.94865954  0.91927509     0.00700
H848        H  0.38620511  0.92177907  0.85301238     0.06600
H849        H  0.37867518  0.49389931  0.96465808     0.06700
N850        N  0.03440953  0.59533232  0.92515727    -0.26300
N851        N  0.47977251  0.98472013  0.98904175    -0.25900
N852        N  0.47962891  0.98850540  0.85501631     0.01100
C853        C  0.13620846  0.58171904  0.95230889     0.42500
C854        C  0.45630909  0.88093455  0.92151700    -0.07200
N855        N  0.43846993  0.51466453  0.96151403    -0.25900
H856        H  0.45207055  0.93912861  0.51880640     0.06600
N857        N  0.12177885  0.56929148  0.92544815    -0.47200
H858        H  0.46146214  0.86771095  0.90313974     0.06600
C859        C  0.35463277  0.92584116  0.89266303     0.42300
C860        C  0.08342961  0.99198299  0.87978159    -0.06700
Co861      Co  0.46835549  0.95071339  0.88766796     0.73800
N862        N  0.43844135  0.89251927  0.96450127    -0.46900
C863        C  0.04919798  0.64374828  0.89657720     0.42600
N864        N  0.46182584  0.97986967  0.82973950    -0.46900
Co865      Co  0.44200035  0.96673236  0.95448298     0.73900
C866        C  0.40796863  0.51747890  0.96491172    -0.07200
C867        C  0.10564806  0.57861377  0.97005384    -0.06800
N868        N  0.01033227  0.52325473  0.85636323    -0.26300
N869        N  0.02856490  0.52638616  0.51607856    -0.47000
H870        H  0.03493365  0.64335252  0.94477609     0.06600
C871        C  0.38565139  0.92909462  0.87540332    -0.07200
Cl872      Cl  0.49547193  0.50435215  0.92286801    -0.50200
C873        C  0.44353343  0.86654738  0.95043597     0.42400
H874        H  0.03742940  0.56740712  0.82537449     0.06600
N875        N  0.36878891  0.93877988  0.91957733    -0.46900
C876        C  0.13424485  0.56199086  0.64877922     0.42200
N877        N  0.07902920  0.55441916  0.65098766     0.01100
C878        C  0.45381904  0.97646690  0.76384438    -0.06800
H879        H  0.98822804  0.88591836  0.71432203     0.06600
C880        C  0.42572777  0.88962346  0.62205521    -0.07100
Co881      Co  0.04498599  0.53000261  0.70897835     0.74200
N882        N  0.00642154  0.94520618  0.71024762    -0.26300
Co883      Co  0.45744024  0.94561704  0.70249449     0.74100
C884        C  0.42300693  0.85904369  0.63898210     0.42300
N885        N  0.48390434  0.98744582  0.60407582     0.00700
N886        N  0.44382889  0.90950808  0.66610313     0.00800
N887        N  0.01102963  0.53179966  0.76653218    -0.47200
H888        H  0.13073270  0.54261307  0.69522086     0.06600
N889        N  0.03983433  0.97740409  0.71311668     0.01100
N890        N  0.40968268  0.94790018  0.69406495     0.00800
C891        C  0.35476459  0.94098601  0.69723272     0.42500
N892        N  0.01708492  0.51995271  0.60658687    -0.25800
C893        C  0.05950988  0.61116499  0.72307404    -0.06700
N894        N  0.10836995  0.56541134  0.63385463    -0.46900
N895        N  0.38087234  0.93737895  0.71151978    -0.47100
C896        C  0.05941595  0.64068745  0.70647796     0.42200
N897        N  0.00468603  0.51489076  0.74076114     0.01100
N898        N  0.48176388  0.55687067  0.63454752    -0.25800
N899        N  0.08429990  0.54444201  0.67638682    -0.26300
N900        N  0.44822124  0.52484195  0.63196378     0.00700
H901        H  0.50039350  0.61618311  0.63045070     0.06600
H902        H  0.35751152  0.95945126  0.65036210     0.06700
N903        N  0.47157413  0.98227460  0.73863634    -0.26300
N904        N  0.43845788  0.91956016  0.64074535    -0.25900
N905        N  0.04307032  0.59154632  0.67885931     0.01100
C906        C  0.05109206  0.93362972  0.72126927     0.42500
C907        C  0.03536566  0.52640826  0.58163637    -0.07200
N908        N  0.40404322  0.95770119  0.66873817    -0.25900
H909        H  0.41651434  0.88847890  0.60012005     0.06600
N910        N  0.06749930  0.97178050  0.71966136    -0.47200
H911        H  0.06177389  0.55230456  0.57657798     0.06600
C912        C  0.43688315  0.56915923  0.62530492     0.42300
C913        C  0.11826815  0.54789410  0.67695501    -0.06700
Co914      Co  0.03074170  0.55627379  0.64246903     0.73800
N915        N  0.47799340  0.97131183  0.57803429    -0.46900
C916        C  0.48002614  0.50955379  0.78225068     0.42600
N917        N  0.04946332  0.62650732  0.67923586    -0.46900
Co918      Co  0.44313988  0.97201765  0.63591166     0.73900
C919        C  0.37015198  0.95445204  0.66864414    -0.07200
C920        C  0.01071747  0.91580201  0.71469923    -0.06800
N921        N  0.04892157  0.58189068  0.70415507    -0.26300
N922        N  0.43447954  0.87342908  0.66604423    -0.47000
H923        H  0.42746466  0.95079322  0.76933734     0.06600
C924        C  0.47758846  0.58646457  0.63044030    -0.07200
Cl925      Cl  0.49408264  0.50089962  0.67242838    -0.50200
C926        C  0.50939590  0.99405970  0.56273244     0.42400
H927        H  0.06829036  0.61225406  0.74511863     0.06600
N928        N  0.42053510  0.53085141  0.62620295    -0.46900
C929        C  0.09888790  0.70738933  0.69177515    -0.09400
C930        C  0.07895825  0.68198001  0.71373387     0.06800
C931        C  0.07860247  0.69681106  0.74141968    -0.03200
C932        C  0.09877098  0.73649670  0.74667431    -0.07600
C933        C  0.11937368  0.76156614  0.72474741     0.05900
C934        C  0.11885732  0.74675202  0.69700292    -0.02600
Br935      Br  0.14319512  0.77892306  0.66498567    -0.02300
H936        H  0.09919026  0.69665970  0.67029220     0.09800
H937        H  0.09812626  0.74787567  0.76782185     0.07800
Br938      Br  0.04917180  0.66488557  0.77219471    -0.02800
C939        C  0.26305872  0.88919159  0.73943924    -0.09400
C940        C  0.23739629  0.88898878  0.71988354     0.06800
C941        C  0.25085517  0.90849725  0.69411196    -0.03200
C942        C  0.28945016  0.92677920  0.68790407    -0.07600
C943        C  0.31524011  0.92562529  0.70679610     0.05900
C944        C  0.30171337  0.90741339  0.73335249    -0.02600
Br945      Br  0.33313900  0.90493435  0.76244148    -0.02300
H946        H  0.25274488  0.87438438  0.75939972     0.09800
H947        H  0.29881078  0.94076822  0.66762796     0.07800
Br948      Br  0.21743564  0.90820891  0.66543813    -0.01800
C949        C  0.06138866  0.88151446  0.70834430    -0.09400
C950        C  0.07172367  0.91419140  0.72547638     0.06800
C951        C  0.10216809  0.92819214  0.74536359    -0.03200
C952        C  0.12214001  0.90969576  0.74741202    -0.07600
C953        C  0.11222465  0.87729644  0.72990213     0.05900
C954        C  0.08162204  0.86334441  0.71002156    -0.02600
Br955      Br  0.06822275  0.82220451  0.68248666    -0.02300
H956        H  0.03841786  0.87095981  0.69265217     0.09800
H957        H  0.14545427  0.92055575  0.76282676     0.07800
Br958      Br  0.11652039  0.97112017  0.77116745    -0.02800
C959        C  0.09167938  0.69551300  0.86394721    -0.09400
C960        C  0.06566541  0.68336669  0.88662462     0.06800
C961        C  0.05768352  0.70985264  0.89948641    -0.03200
C962        C  0.07828482  0.74809249  0.89152973    -0.07600
C963        C  0.10626862  0.76062683  0.87039769     0.05900
C964        C  0.11169038  0.73354675  0.85568986    -0.02600
Br965      Br  0.14549685  0.74671322  0.82382709    -0.02300
H966        H  0.09739469  0.67558740  0.85293546     0.09800
H967        H  0.07308882  0.76841020  0.90252876     0.07800
Br968      Br  0.01815071  0.69614761  0.92687190    -0.02800
C969        C  0.25622922  0.86560458  0.85728751    -0.09400
C970        C  0.23604808  0.87834858  0.87320578     0.06800
C971        C  0.25518106  0.90672345  0.89517841    -0.03200
C972        C  0.29384783  0.92208461  0.90043032    -0.07600
C973        C  0.31422546  0.90944165  0.88455282     0.05900
C974        C  0.29477397  0.88037047  0.86291542    -0.02600
Br975      Br  0.31674790  0.85593372  0.84220163    -0.02300
H976        H  0.24157887  0.84322653  0.84078197     0.09800
H977        H  0.30792069  0.94362606  0.91755142     0.07800
Br978      Br  0.22971571  0.92340233  0.92052883    -0.02800
C979        C  0.13333587  0.91487295  0.88623207    -0.09400
C980        C  0.12311953  0.88912073  0.86256910     0.06800
C981        C  0.09619689  0.88562383  0.84230376    -0.03200
C982        C  0.07899617  0.90675570  0.84655383    -0.07600
C983        C  0.08876815  0.93186268  0.87051987     0.05900
C984        C  0.11646067  0.93623888  0.89032986    -0.02600
Br985      Br  0.12967411  0.96808502  0.92466065    -0.02300
H986        H  0.15356920  0.91735066  0.90219505     0.09800
H987        H  0.05786595  0.90355639  0.83112646     0.07800
Br988      Br  0.08272140  0.85323086  0.80832760    -0.02800
C989        C  0.40311480  0.63864955  0.63011875    -0.09400
C990        C  0.37345403  0.62264056  0.60949139     0.06800
C991        C  0.36570479  0.58951221  0.59353835    -0.03200
C992        C  0.38663896  0.57253931  0.59911329    -0.07600
C993        C  0.41609930  0.58852992  0.61987719     0.05900
C994        C  0.42450140  0.62219755  0.63528984    -0.02600
Br995      Br  0.46248674  0.64562789  0.66540144    -0.02300
H996        H  0.40906116  0.66362187  0.64298888     0.09800
H997        H  0.38025165  0.54700721  0.58682138     0.07800
Br998      Br  0.32846232  0.56741298  0.56288535    -0.02800
C999        C  0.35741927  0.75125192  0.64075581    -0.09400
C1000       C  0.36603611  0.73933447  0.61484294     0.06800
C1001       C  0.39272936  0.76715745  0.59645384    -0.03200
C1002       C  0.41058843  0.80612852  0.60438797    -0.07600
C1003       C  0.40274023  0.81787101  0.63076098     0.05900
C1004       C  0.37530600  0.78995456  0.64879220    -0.02600
Br1005     Br  0.35900933  0.80262252  0.68376006    -0.02300
H1006       H  0.33671132  0.73018061  0.65502084     0.09800
H1007       H  0.43111702  0.82731383  0.59011464     0.07800
Br1008     Br  0.40479832  0.75331556  0.56011377    -0.02800
C1009       C  0.18131428  0.57049705  0.61187884    -0.09400
C1010       C  0.17396581  0.57852713  0.63987552     0.06800
C1011       C  0.20475990  0.60410368  0.65818069    -0.03200
C1012       C  0.24184472  0.62080167  0.64839443    -0.07600
C1013       C  0.24921266  0.61309553  0.62044808     0.05900
C1014       C  0.21871809  0.58747176  0.60210089    -0.02600
Br1015     Br  0.22679975  0.57660470  0.56330111    -0.02300
H1016       H  0.15788162  0.55130955  0.59749955     0.09800
H1017       H  0.26522923  0.64103243  0.66242843     0.07800
Br1018     Br  0.19863513  0.62120610  0.69549773    -0.02800
C1019       C  0.35577215  0.59165854  0.95905881    -0.09400
C1020       C  0.36879021  0.62067591  0.98058884     0.06800
C1021       C  0.39911322  0.62799381  0.99890851    -0.03200
C1022       C  0.41629491  0.60686863  0.99496477    -0.07600
C1023       C  0.40340532  0.57817699  0.97325781     0.05900
C1024       C  0.37280699  0.57046530  0.95520505    -0.02600
Br1025     Br  0.35572169  0.53456275  0.92304754    -0.02300
H1026       H  0.33325355  0.58653390  0.94430737     0.09800
H1027       H  0.43983645  0.61283158  0.00894360     0.07800
Br1028     Br  0.41756745  0.66559856  0.02996386    -0.02800
C1029       C  0.42873811  0.80051396  0.94036285    -0.09400
C1030       C  0.42693174  0.82663065  0.95941784     0.06800
C1031       C  0.40591005  0.81283019  0.98500946    -0.03200
C1032       C  0.38448321  0.77353419  0.98931886    -0.07600
C1033       C  0.38483455  0.74764513  0.96940507     0.05900
C1034       C  0.40793068  0.76137662  0.94511741    -0.02600
Br1035     Br  0.40949446  0.72775763  0.91643390    -0.02300
H1036       H  0.44526057  0.81013233  0.92101571     0.09800
H1037       H  0.36709680  0.76300289  0.50825030     0.07800
Br1038     Br  0.40444457  0.84489109  0.01523607    -0.02800
C1039       C  0.19625767  0.58393824  0.94520932    -0.09400
C1040       C  0.17668137  0.59842290  0.95986414     0.06800
C1041       C  0.19695610  0.62989627  0.97946426    -0.03200
C1042       C  0.23562078  0.64503875  0.48476726    -0.07600
C1043       C  0.25512757  0.63044699  0.97014474     0.05900
C1044       C  0.23512600  0.59986610  0.94981399    -0.02600
Br1045     Br  0.25953076  0.58098564  0.92541261    -0.02300
H1046       H  0.18139434  0.56061721  0.92942685     0.09800
H1047       H  0.25087594  0.66919050  0.49982690     0.07800
Br1048     Br  0.17563590  0.65700889  0.49699791    -0.02800
C1049       C  0.85230539  0.14473127  0.98139450     0.02900
C1050       C  0.81271602  0.12756859  0.98058073    -0.13300
C1051       C  0.79661329  0.14926593  0.97495603     0.00400
C1052       C  0.82048009  0.18897946  0.97244324    -0.11800
C1053       C  0.86005578  0.20644484  0.97396925     0.02900
C1054       C  0.87584759  0.18424829  0.97820965    -0.11200
H1055       H  0.79447278  0.09695169  0.98294381     0.08500
H1056       H  0.80840221  0.20609021  0.96796596     0.06000
H1057       H  0.90645483  0.19757797  0.97777461     0.05800
C1058       C  0.85018891  0.14013475  0.10646644     0.02900
C1059       C  0.81040200  0.11764278  0.10915590    -0.13300
C1060       C  0.78897212  0.13487322  0.11092753     0.00400
C1061       C  0.80731174  0.17469996  0.10994608    -0.11800
C1062       C  0.84694468  0.19768289  0.10827201     0.02900
C1063       C  0.86817007  0.18022713  0.10591254    -0.11200
H1064       H  0.79645565  0.08716733  0.11216163     0.08500
H1065       H  0.79088909  0.18804349  0.11288526     0.06000
H1066       H  0.89893626  0.19798498  0.10566402     0.05800
C1067       C  0.63941687  0.36485226  0.36090985     0.02900
C1068       C  0.67891690  0.38199163  0.36285722    -0.13300
C1069       C  0.69473870  0.35989665  0.36771023     0.00400
C1070       C  0.67079010  0.32002382  0.36882267    -0.11800
C1071       C  0.63119938  0.30220761  0.36574605     0.02900
C1072       C  0.61564800  0.32492299  0.36209274    -0.11200
H1073       H  0.69725218  0.41282734  0.36200159     0.08500
H1074       H  0.68288775  0.30299810  0.37353192     0.06000
H1075       H  0.58505073  0.31172579  0.36151256     0.05800
C1076       C  0.63537528  0.35988710  0.23154654     0.02900
C1077       C  0.61794341  0.32024144  0.23384099    -0.13300
C1078       C  0.63918393  0.30312566  0.23017392     0.00400
C1079       C  0.67860064  0.32600271  0.22694487    -0.11800
C1080       C  0.69651223  0.36578854  0.22584317     0.02900
C1081       C  0.67488905  0.38269106  0.22830364    -0.11200
H1082       H  0.58741213  0.30241571  0.23629319     0.08500
H1083       H  0.69497569  0.31267620  0.22358667     0.06000
H1084       H  0.68860085  0.41335297  0.22638396     0.05800
C1085       C  0.56801400  0.45119007  0.37530883     0.42200
N1086       N  0.52207719  0.45960041  0.38229614     0.01100
C1087       C  0.53771295  0.12951867  0.42569520    -0.06800
H1088       H  0.60579697  0.08612115  0.49252525     0.06600
C1089       C  0.97606425  0.46683563  0.01343764    -0.07100
Co1090     Co  0.54855441  0.04199371  0.39103335     0.74200
N1091       N  0.57594269  0.06532106  0.45189795    -0.26300
Co1092     Co  0.52298713  0.05780881  0.45837726     0.74100
C1093       C  0.00843755  0.49434867  0.03130273     0.42300
N1094       N  0.94751537  0.42030086  0.44666196     0.00700
N1095       N  0.51088139  0.01913452  0.49082298     0.00800
N1096       N  0.55250009  0.11695618  0.38175496    -0.47200
H1097       H  0.61261951  0.51575665  0.37963498     0.06600
N1098       N  0.58592352  0.05980117  0.42615912     0.01100
N1099       N  0.96938913  0.04925998  0.46344908     0.00800
C1100       C  0.92374346  0.05837637  0.46905186     0.42500
N1101       N  0.95762970  0.41408464  0.42123793    -0.25800
C1102       C  0.51361883  0.03991080  0.33135981    -0.06700
N1103       N  0.52991041  0.43282119  0.37700458    -0.46900
N1104       N  0.96186586  0.07634276  0.46812025    -0.47100
C1105       C  0.98135630  0.01114438  0.31376311     0.42200
N1106       N  0.54307667  0.08869636  0.39926486     0.01100
N1107       N  0.91512412  0.44277708  0.39382059    -0.25800
N1108       N  0.55274179  0.49437547  0.38386173    -0.26300
N1109       N  0.90479372  0.44865977  0.41927488     0.00700
H1110       H  0.88620542  0.42177956  0.35301216     0.06600
H1111       H  0.87867565  0.99390007  0.46465771     0.06700
N1112       N  0.53441024  0.09533282  0.42515745    -0.26300
N1113       N  0.97977230  0.48472020  0.48904167    -0.25900
N1114       N  0.97962927  0.48850603  0.35501619     0.01100
C1115       C  0.63620897  0.08171936  0.45230919     0.42500
C1116       C  0.95630981  0.38093522  0.42151668    -0.07200
N1117       N  0.93847036  0.01466501  0.46151379    -0.25900
H1118       H  0.95207103  0.43912851  0.01880660     0.06600
N1119       N  0.62177942  0.06929189  0.42544842    -0.47200
H1120       H  0.96146324  0.36771190  0.40313945     0.06600
C1121       C  0.85463294  0.42584147  0.39266279     0.42300
C1122       C  0.58343002  0.49198381  0.37978142    -0.06700
Co1123     Co  0.96835583  0.45071396  0.38766777     0.73800
N1124       N  0.93844160  0.39251950  0.46450091    -0.46900
C1125       C  0.54919900  0.14374904  0.39657756     0.42600
N1126       N  0.96182626  0.47987030  0.32973936    -0.46900
Co1127     Co  0.94200035  0.46673257  0.45448279     0.73900
C1128       C  0.90796912  0.01747952  0.46491141    -0.07200
C1129       C  0.60564850  0.07861397  0.47005413    -0.06800
N1130       N  0.51033318  0.02325546  0.35636313    -0.26300
N1131       N  0.52856525  0.02638613  0.01607851    -0.47000
H1132       H  0.53493455  0.14335302  0.44477645     0.06600
C1133       C  0.88565160  0.42909497  0.37540308    -0.07200
Cl1134     Cl  0.99547245  0.00435258  0.42286797    -0.50200
C1135       C  0.94353405  0.36654785  0.45043559     0.42400
H1136       H  0.53743041  0.06740786  0.32537439     0.06600
N1137       N  0.86878900  0.43878011  0.41957711    -0.46900
C1138       C  0.63424557  0.06199086  0.14877905     0.42200
N1139       N  0.57903001  0.05441943  0.15098751     0.01100
C1140       C  0.95381946  0.47646733  0.26384424    -0.06800
H1141       H  0.48822840  0.38591867  0.21432195     0.06600
C1142       C  0.92572831  0.38962382  0.12205512    -0.07100
Co1143     Co  0.54498679  0.03000287  0.20897823     0.74200
N1144       N  0.50642194  0.44520650  0.21024750    -0.26300
Co1145     Co  0.95744068  0.44561744  0.20249443     0.74100
C1146       C  0.92300740  0.35904401  0.13898201     0.42300
N1147       N  0.98390489  0.48744616  0.10407582     0.00700
N1148       N  0.94382924  0.40950839  0.16610308     0.00800
N1149       N  0.51103054  0.03180012  0.26653204    -0.47200
H1150       H  0.63073330  0.04261294  0.19522065     0.06600
N1151       N  0.53983472  0.47740439  0.21311658     0.01100
N1152       N  0.90968320  0.44790066  0.19406486     0.00800
C1153       C  0.85476493  0.44098612  0.19723247     0.42500
N1154       N  0.51708565  0.01995299  0.10658679    -0.25800
C1155       C  0.55951057  0.11116523  0.22307396    -0.06700
N1156       N  0.60837076  0.06541153  0.13385449    -0.46900
N1157       N  0.88087274  0.43737924  0.21151960    -0.47100
C1158       C  0.55941657  0.14068765  0.20647789     0.42200
N1159       N  0.50468689  0.01489110  0.24076102     0.01100
N1160       N  0.98176445  0.05687089  0.13454764    -0.25800
N1161       N  0.58430065  0.04444218  0.17638666    -0.26300
N1162       N  0.94822182  0.02484218  0.13196390     0.00700
H1163       H  0.00039402  0.11618336  0.13045097     0.06600
H1164       H  0.85751193  0.45945131  0.15036182     0.06700
N1165       N  0.97157454  0.48227501  0.23863622    -0.26300
N1166       N  0.93845835  0.41956050  0.14074529    -0.25900
N1167       N  0.54307121  0.09154664  0.17885920     0.01100
C1168       C  0.55109241  0.43363000  0.22126915     0.42500
C1169       C  0.53536634  0.02640842  0.08163627    -0.07200
N1170       N  0.90404376  0.45770165  0.16873807    -0.25900
H1171       H  0.91651495  0.38847930  0.10011994     0.06600
N1172       N  0.56749969  0.47178079  0.21966127    -0.47200
H1173       H  0.56177457  0.05230464  0.07657779     0.06600
C1174       C  0.93688368  0.06915948  0.12530527     0.42300
C1175       C  0.61826881  0.04789408  0.17695482    -0.06700
Co1176     Co  0.53074252  0.05627410  0.14246894     0.73800
N1177       N  0.97799391  0.47131206  0.07803432    -0.46900
C1178       C  0.98002700  0.00955428  0.28225067     0.42600
N1179       N  0.54946406  0.12650756  0.17923577    -0.46900
Co1180     Co  0.94314044  0.47201805  0.13591161     0.73900
C1181       C  0.87015243  0.45445228  0.16864394    -0.07200
C1182       C  0.51071783  0.41580230  0.21469913    -0.06800
N1183       N  0.54892243  0.08189096  0.20415498    -0.26300
N1184       N  0.93447985  0.37342936  0.16604417    -0.47000
H1185       H  0.92746504  0.45079366  0.26933718     0.06600
C1186       C  0.97758900  0.08646482  0.13044056    -0.07200
Cl1187     Cl  0.99408333  0.00089985  0.17242835    -0.50200
C1188       C  0.00939635  0.49405992  0.06273241     0.42400
H1189       H  0.56829091  0.11225427  0.24511860     0.06600
N1190       N  0.92053563  0.03085165  0.12620321    -0.46900
C1191       C  0.59888861  0.20738944  0.19177510    -0.09400
C1192       C  0.57895874  0.18198017  0.21373379     0.06800
C1193       C  0.57860271  0.19681124  0.24141951    -0.03200
C1194       C  0.59877117  0.23649688  0.24667412    -0.07600
C1195       C  0.61937402  0.26156629  0.22474725     0.05900
C1196       C  0.61885796  0.24675212  0.19700284    -0.02600
Br1197     Br  0.64319617  0.27892302  0.16498557    -0.02300
H1198       H  0.59919124  0.19665981  0.17029226     0.09800
H1199       H  0.59812629  0.24787589  0.26782162     0.07800
Br1200     Br  0.54917176  0.16488574  0.27219443    -0.02800
C1201       C  0.76305895  0.38919139  0.23943884    -0.09400
C1202       C  0.73739656  0.38898881  0.21988323     0.06800
C1203       C  0.75085550  0.40849747  0.19411171    -0.03200
C1204       C  0.78945048  0.42677934  0.18790384    -0.07600
C1205       C  0.81524040  0.42562527  0.20679580     0.05900
C1206       C  0.80171359  0.40741319  0.23335212    -0.02600
Br1207     Br  0.83313906  0.40493370  0.26244099    -0.02300
H1208       H  0.75274507  0.37438398  0.25939929     0.09800
H1209       H  0.79881116  0.44076846  0.16762773     0.07800
Br1210     Br  0.71743593  0.40820914  0.16543787    -0.01800
C1211       C  0.56138902  0.38151473  0.20834400    -0.09400
C1212       C  0.57172401  0.41419165  0.22547613     0.06800
C1213       C  0.60216838  0.42819232  0.24536340    -0.03200
C1214       C  0.62214024  0.40969588  0.24741181    -0.07600
C1215       C  0.61222495  0.37729665  0.22990185     0.05900
C1216       C  0.58162241  0.36334467  0.21002123    -0.02600
Br1217     Br  0.56822321  0.32220475  0.18248635    -0.02300
H1218       H  0.53841820  0.37096007  0.19265185     0.09800
H1219       H  0.64545439  0.42055575  0.26282665     0.07800
Br1220     Br  0.61652045  0.47112008  0.27116753    -0.02800
C1221       C  0.59168001  0.19551377  0.36394745    -0.09400
C1222       C  0.56566627  0.18336746  0.38662500     0.06800
C1223       C  0.55768448  0.20985340  0.39948691    -0.03200
C1224       C  0.57828559  0.24809324  0.39153018    -0.07600
C1225       C  0.60626915  0.26062757  0.37039798     0.05900
C1226       C  0.61169083  0.23354751  0.35569005    -0.02600
Br1227     Br  0.64549716  0.24671402  0.32382719    -0.02300
H1228       H  0.59739533  0.17558824  0.35293564     0.09800
H1229       H  0.57308966  0.26841093  0.40252929     0.07800
Br1230     Br  0.51815188  0.19614839  0.42687252    -0.02800
C1231       C  0.75622944  0.36560504  0.35728732    -0.09400
C1232       C  0.73604844  0.37834937  0.37320543     0.06800
C1233       C  0.75518151  0.40672445  0.39517789    -0.03200
C1234       C  0.79384825  0.42208549  0.40042984    -0.07600
C1235       C  0.81422572  0.40944219  0.38455249     0.05900
C1236       C  0.79477416  0.38037084  0.36291525    -0.02600
Br1237     Br  0.81674796  0.35593370  0.34220178    -0.02300
H1238       H  0.74157901  0.34322682  0.34078194     0.09800
H1239       H  0.80792117  0.44362704  0.41755084     0.07800
Br1240     Br  0.72971629  0.42340368  0.42052811    -0.02800
C1241       C  0.63333629  0.41487376  0.38623169    -0.09400
C1242       C  0.62311982  0.38912137  0.36256881     0.06800
C1243       C  0.59619706  0.38562432  0.34230353    -0.03200
C1244       C  0.57899632  0.40675620  0.34655356    -0.07600
C1245       C  0.58876862  0.43186353  0.37051943     0.05900
C1246       C  0.61646126  0.43623988  0.39032934    -0.02600
Br1247     Br  0.62967495  0.46808637  0.42465994    -0.02300
H1248       H  0.65356961  0.41735151  0.40219466     0.09800
H1249       H  0.55786591  0.40355664  0.33112629     0.07800
Br1250     Br  0.58272138  0.35323108  0.30832750    -0.02800
C1251       C  0.90311556  0.13865002  0.13011868    -0.09400
C1252       C  0.87345466  0.12264085  0.10949139     0.06800
C1253       C  0.86570530  0.08951234  0.09353853    -0.03200
C1254       C  0.88663947  0.07253946  0.09911358    -0.07600
C1255       C  0.91609989  0.08853021  0.11987742     0.05900
C1256       C  0.92450213  0.12219801  0.13528989    -0.02600
Br1257     Br  0.96248772  0.14562866  0.16540133    -0.02300
H1258       H  0.90906202  0.16362249  0.14298865     0.09800
H1259       H  0.88025201  0.04700720  0.08682183     0.07800
Br1260     Br  0.82846255  0.06741268  0.06288570    -0.02800
C1261       C  0.85741994  0.25125216  0.14075563    -0.09400
C1262       C  0.86603663  0.23933474  0.11484270     0.06800
C1263       C  0.89272986  0.26715781  0.09645364    -0.03200
C1264       C  0.91058896  0.30612888  0.10438779    -0.07600
C1265       C  0.90274080  0.31787131  0.13076083     0.05900
C1266       C  0.87530667  0.28995479  0.14879205    -0.02600
Br1267     Br  0.85901024  0.30262271  0.18376000    -0.02300
H1268       H  0.83671208  0.23018080  0.15502071     0.09800
H1269       H  0.93111752  0.32731419  0.09011445     0.07800
Br1270     Br  0.90479874  0.25331602  0.06011357    -0.02800
C1271       C  0.68131498  0.07049736  0.11187856    -0.09400
C1272       C  0.67396654  0.07852713  0.13987536     0.06800
C1273       C  0.70476069  0.10410343  0.15818063    -0.03200
C1274       C  0.74184548  0.12080153  0.14839427    -0.07600
C1275       C  0.74921332  0.11309575  0.12044779     0.05900
C1276       C  0.71871876  0.08747220  0.10210054    -0.02600
Br1277     Br  0.72680048  0.07660548  0.06330063    -0.02300
H1278       H  0.65788230  0.05130996  0.09749924     0.09800
H1279       H  0.76523005  0.14103207  0.16242834     0.07800
Br1280     Br  0.69863618  0.12120517  0.19549804    -0.02800
C1281       C  0.85577310  0.09165953  0.45905860    -0.09400
C1282       C  0.86879102  0.12067669  0.48058882     0.06800
C1283       C  0.89911384  0.12799435  0.49890860    -0.03200
C1284       C  0.91629551  0.10686914  0.49496482    -0.07600
C1285       C  0.90340606  0.07817770  0.47325768     0.05900
C1286       C  0.87280790  0.07046624  0.45520479    -0.02600
Br1287     Br  0.85572282  0.03456414  0.42304690    -0.02300
H1288       H  0.83325468  0.08653510  0.44430712     0.09800
H1289       H  0.93983691  0.11283192  0.50894373     0.07800
Br1290     Br  0.91756784  0.16559885  0.52996415    -0.02800
C1291       C  0.92873668  0.30051383  0.44036155    -0.09400
C1292       C  0.92693235  0.32663105  0.45941731     0.06800
C1293       C  0.90591257  0.31283111  0.48500979    -0.03200
C1294       C  0.88448550  0.27353516  0.48931942    -0.07600
C1295       C  0.88483488  0.24764565  0.46940499     0.05900
C1296       C  0.90792909  0.26137658  0.44511632    -0.02600
Br1297     Br  0.90949010  0.22775685  0.41643204    -0.02300
H1298       H  0.94525765  0.31013170  0.42101367     0.09800
H1299       H  0.86709611  0.26300211  0.00824987     0.07800
Br1300     Br  0.90445057  0.34489285  0.51523743    -0.02800
C1301       C  0.69625833  0.08393886  0.44520958    -0.09400
C1302       C  0.67668191  0.09842334  0.45986444     0.06800
C1303       C  0.69695655  0.12989665  0.47946463    -0.03200
C1304       C  0.73562093  0.14503831  0.98476696    -0.07600
C1305       C  0.75512809  0.13044746  0.47014524     0.05900
C1306       C  0.73512664  0.09986670  0.44981436    -0.02600
Br1307     Br  0.75953154  0.08098645  0.42541294    -0.02300
H1308       H  0.68139506  0.06061793  0.42942700     0.09800
H1309       H  0.75087607  0.16918988  0.99982671     0.07800
Br1310     Br  0.67563594  0.15700810  0.99699824    -0.02800
C1311       C  0.85230568  0.14473188  0.48139463     0.02900
C1312       C  0.81271631  0.12756915  0.48058108    -0.13300
C1313       C  0.79661346  0.14926641  0.47495651     0.00400
C1314       C  0.82048019  0.18897996  0.47244365    -0.11800
C1315       C  0.86005589  0.20644538  0.47396952     0.02900
C1316       C  0.87584781  0.18424890  0.47820975    -0.11200
H1317       H  0.79447313  0.09695223  0.48294417     0.08500
H1318       H  0.80840225  0.20609064  0.46796637     0.06000
H1319       H  0.90645502  0.19757860  0.47777448     0.05800
C1320       C  0.85018846  0.14013447  0.60646682     0.02900
C1321       C  0.81040154  0.11764256  0.60915635    -0.13300
C1322       C  0.78897173  0.13487307  0.61092804     0.00400
C1323       C  0.80731146  0.17469983  0.60994656    -0.11800
C1324       C  0.84694441  0.19768269  0.60827249     0.02900
C1325       C  0.86816972  0.18022687  0.60591303    -0.11200
H1326       H  0.79645516  0.08716710  0.61216204     0.08500
H1327       H  0.79088887  0.18804342  0.61288565     0.06000
H1328       H  0.89893595  0.19798466  0.60566454     0.05800
C1329       C  0.63941634  0.36485159  0.86091028     0.02900
C1330       C  0.67891639  0.38199095  0.86285782    -0.13300
C1331       C  0.69473812  0.35989587  0.86771063     0.00400
C1332       C  0.67078945  0.32002299  0.86882262    -0.11800
C1333       C  0.63119873  0.30220683  0.86574580     0.02900
C1334       C  0.61564745  0.32492231  0.86209269    -0.11200
H1335       H  0.69725167  0.41282666  0.86200242     0.08500
H1336       H  0.68288702  0.30299716  0.87353170     0.06000
H1337       H  0.58505014  0.31172512  0.86151237     0.05800
C1338       C  0.63537471  0.35988682  0.73154638     0.02900
C1339       C  0.61794282  0.32024115  0.73384073    -0.13300
C1340       C  0.63918336  0.30312537  0.73017375     0.00400
C1341       C  0.67860009  0.32600244  0.72694475    -0.11800
C1342       C  0.69651170  0.36578830  0.72584314     0.02900
C1343       C  0.67488852  0.38269080  0.72830364    -0.11200
H1344       H  0.58741153  0.30241541  0.73629282     0.08500
H1345       H  0.69497515  0.31267594  0.72358656     0.06000
H1346       H  0.68860034  0.41335273  0.72638408     0.05800
C1347       C  0.56801349  0.45118937  0.87530932     0.42200
N1348       N  0.52207667  0.45959980  0.88229627     0.01100
C1349       C  0.53771257  0.12951824  0.92569492    -0.06800
H1350       H  0.60579687  0.08612087  0.99252497     0.06600
C1351       C  0.97606396  0.46683575  0.51343748    -0.07100
Co1352     Co  0.54855398  0.04199319  0.89103328     0.74200
N1353       N  0.57594255  0.06532089  0.95189771    -0.26300
Co1354     Co  0.52298699  0.05780856  0.95837715     0.74100
C1355       C  0.00843715  0.49434867  0.53130271     0.42300
N1356       N  0.94751515  0.42030047  0.94666226     0.00700
N1357       N  0.51088145  0.01913440  0.99082285     0.00800
N1358       N  0.55249944  0.11695545  0.88175468    -0.47200
H1359       H  0.61261906  0.51575594  0.87963534     0.06600
N1360       N  0.58592330  0.05980091  0.92615887     0.01100
N1361       N  0.96938894  0.04925962  0.96344910     0.00800
C1362       C  0.92374315  0.05837580  0.96905206     0.42500
N1363       N  0.95762922  0.41408406  0.92123816    -0.25800
C1364       C  0.51361823  0.03991022  0.83135993    -0.06700
N1365       N  0.52990988  0.43282055  0.87700493    -0.46900
N1366       N  0.96186555  0.07634234  0.96812021    -0.47100
C1367       C  0.98135559  0.01114386  0.81376323     0.42200
N1368       N  0.54307627  0.08869583  0.89926472     0.01100
N1369       N  0.91512367  0.44277652  0.89382089    -0.25800
N1370       N  0.55274130  0.49437487  0.88386181    -0.26300
N1371       N  0.90479338  0.44865924  0.91927519     0.00700
H1372       H  0.88620484  0.42177899  0.85301249     0.06600
H1373       H  0.87867548  0.99389944  0.96465817     0.06700
N1374       N  0.53440996  0.09533245  0.92515730    -0.26300
N1375       N  0.97977232  0.48472004  0.98904183    -0.25900
N1376       N  0.97962861  0.48850530  0.85501634     0.01100
C1377       C  0.63620882  0.08171911  0.95230884     0.42500
C1378       C  0.95630919  0.38093460  0.92151695    -0.07200
N1379       N  0.93847023  0.01466460  0.96151403    -0.25900
H1380       H  0.95207052  0.43912865  0.51880637     0.06600
N1381       N  0.62177915  0.06929157  0.92544811    -0.47200
H1382       H  0.96146236  0.36771108  0.90313965     0.06600
C1383       C  0.85463251  0.42584090  0.89266319     0.42300
C1384       C  0.58342951  0.49198312  0.87978171    -0.06700
Co1385     Co  0.96835530  0.45071333  0.88766799     0.73800
N1386       N  0.93844148  0.39251920  0.96450127    -0.46900
C1387       C  0.54919829  0.14374833  0.89657718     0.42600
N1388       N  0.96182559  0.47986954  0.82973951    -0.46900
Co1389     Co  0.94200015  0.46673218  0.95448306     0.73900
C1390       C  0.90796894  0.01747898  0.96491178    -0.07200
C1391       C  0.60564841  0.07861381  0.97005383    -0.06800
N1392       N  0.51033258  0.02325479  0.85636322    -0.26300
N1393       N  0.52856501  0.02638610  0.51607869    -0.47000
H1394       H  0.53493420  0.14335275  0.94477609     0.06600
C1395       C  0.88565111  0.42909443  0.87540340    -0.07200
Cl1396     Cl  0.99547224  0.00435212  0.92286802    -0.50200
C1397       C  0.94353368  0.36654741  0.95043592     0.42400
H1398       H  0.53742973  0.06740725  0.82537454     0.06600
N1399       N  0.86878863  0.43877954  0.91957749    -0.46900
C1400       C  0.63424491  0.06199049  0.64877914     0.42200
N1401       N  0.57902931  0.05441890  0.65098763     0.01100
C1402       C  0.95381877  0.47646685  0.76384432    -0.06800
H1403       H  0.48822788  0.38591835  0.71432179     0.06600
C1404       C  0.92572792  0.38962361  0.62205517    -0.07100
Co1405     Co  0.54498620  0.03000250  0.70897836     0.74200
N1406       N  0.50642130  0.44520619  0.71024755    -0.26300
Co1407     Co  0.95744009  0.44561716  0.70249445     0.74100
C1408       C  0.92300702  0.35904384  0.63898209     0.42300
N1409       N  0.98390426  0.48744588  0.60407577     0.00700
N1410       N  0.94382875  0.40950819  0.66610313     0.00800
N1411       N  0.51102989  0.03179974  0.76653219    -0.47200
H1412       H  0.63073294  0.04261296  0.69522083     0.06600
N1413       N  0.53983409  0.47740411  0.71311661     0.01100
N1414       N  0.90968261  0.44790039  0.69406490     0.00800
C1415       C  0.85476440  0.44098593  0.69723256     0.42500
N1416       N  0.51708504  0.01995264  0.60658689    -0.25800
C1417       C  0.55950997  0.11116484  0.72307406    -0.06700
N1418       N  0.60837004  0.06541103  0.63385458    -0.46900
N1419       N  0.88087220  0.43737900  0.71151966    -0.47100
C1420       C  0.55941598  0.14068726  0.70647798     0.42200
N1421       N  0.50468630  0.01489074  0.74076117     0.01100
N1422       N  0.98176386  0.05687051  0.63454774    -0.25800
N1423       N  0.58430005  0.04444178  0.67638679    -0.26300
N1424       N  0.94822125  0.02484181  0.63196398     0.00700
H1425       H  0.00039336  0.11618296  0.63045114     0.06600
H1426       H  0.85751133  0.45945109  0.65036190     0.06700
N1427       N  0.97157385  0.48227463  0.73863627    -0.26300
N1428       N  0.93845784  0.41956027  0.64074533    -0.25900
N1429       N  0.54307057  0.09154622  0.67885931     0.01100
C1430       C  0.55109188  0.43362975  0.72126903     0.42500
C1431       C  0.53536576  0.02640815  0.58163638    -0.07200
N1432       N  0.90404316  0.45770138  0.66873810    -0.25900
H1433       H  0.91651465  0.38847911  0.60011996     0.06600
N1434       N  0.56749909  0.47178053  0.71966119    -0.47200
H1435       H  0.56177399  0.05230444  0.57657793     0.06600
C1436       C  0.93688306  0.06915905  0.62530538     0.42300
C1437       C  0.61826829  0.04789383  0.67695496    -0.06700
Co1438     Co  0.53074188  0.05627368  0.64246905     0.73800
N1439       N  0.97799334  0.47131189  0.57803423    -0.46900
C1440       C  0.98002631  0.00955376  0.78225078     0.42600
N1441       N  0.54946345  0.12650714  0.67923587    -0.46900
Co1442     Co  0.94313980  0.47201773  0.63591159     0.73900
C1443       C  0.87015186  0.45445206  0.66864402    -0.07200
C1444       C  0.51071727  0.41580203  0.71469907    -0.06800
N1445       N  0.54892181  0.08189056  0.70415509    -0.26300
N1446       N  0.93447946  0.37342920  0.66604424    -0.47000
H1447       H  0.92746438  0.45079317  0.76933724     0.06600
C1448       C  0.97758838  0.08646442  0.63044068    -0.07200
Cl1449     Cl  0.99408275  0.00089954  0.67242845    -0.50200
C1450       C  0.00939584  0.49405981  0.56273238     0.42400
H1451       H  0.56829036  0.11225389  0.74511869     0.06600
N1452       N  0.92053503  0.03085124  0.62620331    -0.46900
C1453       C  0.59888790  0.20738906  0.69177509    -0.09400
C1454       C  0.57895816  0.18197982  0.71373383     0.06800
C1455       C  0.57860219  0.19681097  0.74141955    -0.03200
C1456       C  0.59877068  0.23649663  0.74667409    -0.07600
C1457       C  0.61937341  0.26156599  0.72474716     0.05900
C1458       C  0.61885719  0.24675175  0.69700275    -0.02600
Br1459     Br  0.64319533  0.27892270  0.66498546    -0.02300
H1460       H  0.59919048  0.19665935  0.67029223     0.09800
H1461       H  0.59812592  0.24787573  0.76782162     0.07800
Br1462     Br  0.54917144  0.16488550  0.77219455    -0.02800
C1463       C  0.76305842  0.38919127  0.73943891    -0.09400
C1464       C  0.73739605  0.38898866  0.71988327     0.06800
C1465       C  0.75085504  0.40849745  0.69411180    -0.03200
C1466       C  0.78945004  0.42677937  0.68790397    -0.07600
C1467       C  0.81523991  0.42562519  0.70679591     0.05900
C1468       C  0.80171305  0.40741308  0.73335220    -0.02600
Br1469     Br  0.83313848  0.40493373  0.76244112    -0.02300
H1470       H  0.75274453  0.37438390  0.75939935     0.09800
H1471       H  0.79881076  0.44076855  0.66762789     0.07800
Br1472     Br  0.71743553  0.40820918  0.66543796    -0.01800
C1473       C  0.56138847  0.38151452  0.70834389    -0.09400
C1474       C  0.57172354  0.41419147  0.72547598     0.06800
C1475       C  0.60216797  0.42819216  0.74536319    -0.03200
C1476       C  0.62213979  0.40969568  0.74741161    -0.07600
C1477       C  0.61222440  0.37729639  0.72990168     0.05900
C1478       C  0.58162181  0.36334442  0.71002111    -0.02600
Br1479     Br  0.56822242  0.32220447  0.68248622    -0.02300
H1480       H  0.53841761  0.37095985  0.69265180     0.09800
H1481       H  0.64545399  0.42055556  0.76282638     0.07800
Br1482     Br  0.61652029  0.47112009  0.77116720    -0.02800
C1483       C  0.59167922  0.19551299  0.86394699    -0.09400
C1484       C  0.56566546  0.18336667  0.88662453     0.06800
C1485       C  0.55768352  0.20985255  0.89948637    -0.03200
C1486       C  0.57828467  0.24809239  0.89152968    -0.07600
C1487       C  0.60626838  0.26062678  0.87039756     0.05900
C1488       C  0.61169008  0.23354674  0.85568962    -0.02600
Br1489     Br  0.64549665  0.24671343  0.82382688    -0.02300
H1490       H  0.59739451  0.17558741  0.85293518     0.09800
H1491       H  0.57308867  0.26841004  0.90252878     0.07800
Br1492     Br  0.51815081  0.19614753  0.92687194    -0.02800
C1493       C  0.75622897  0.36560444  0.85728770    -0.09400
C1494       C  0.73604787  0.37834853  0.87320596     0.06800
C1495       C  0.75518085  0.40672336  0.89517862    -0.03200
C1496       C  0.79384762  0.42208442  0.90043054    -0.07600
C1497       C  0.81422519  0.40944137  0.88455301     0.05900
C1498       C  0.79477370  0.38037019  0.86291563    -0.02600
Br1499     Br  0.81674751  0.35593320  0.84220189    -0.02300
H1500       H  0.74157861  0.34322642  0.84078217     0.09800
H1501       H  0.80792052  0.44362585  0.91755162     0.07800
Br1502     Br  0.72971546  0.42340230  0.92052902    -0.02800
C1503       C  0.63333545  0.41487271  0.88623242    -0.09400
C1504       C  0.62311928  0.38912065  0.86256937     0.06800
C1505       C  0.59619683  0.38562392  0.84230393    -0.03200
C1506       C  0.57899614  0.40675583  0.84655393    -0.07600
C1507       C  0.58876808  0.43186279  0.87051999     0.05900
C1508       C  0.61646039  0.43623878  0.89033009    -0.02600
Br1509     Br  0.62967365  0.46808476  0.92466090    -0.02300
H1510       H  0.65356859  0.41735025  0.90219551     0.09800
H1511       H  0.55786608  0.40355661  0.83112645     0.07800
Br1512     Br  0.58272184  0.35323138  0.80832758    -0.02800
C1513       C  0.90311489  0.13864948  0.63011911    -0.09400
C1514       C  0.87345414  0.12264051  0.60949169     0.06800
C1515       C  0.86570491  0.08951218  0.59353863    -0.03200
C1516       C  0.88663904  0.07253924  0.59911363    -0.07600
C1517       C  0.91609924  0.08852976  0.61987765     0.05900
C1518       C  0.92450137  0.12219738  0.63529032    -0.02600
Br1519     Br  0.96248667  0.14562757  0.66540203    -0.02300
H1520       H  0.90906129  0.16362187  0.64298916     0.09800
H1521       H  0.88025178  0.04700718  0.58682171     0.07800
Br1522     Br  0.82846251  0.06741298  0.56288558    -0.02800
C1523       C  0.85741950  0.25125209  0.64075586    -0.09400
C1524       C  0.86603637  0.23933458  0.61484304     0.06800
C1525       C  0.89272974  0.26715754  0.59645400    -0.03200
C1526       C  0.91058875  0.30612865  0.60438803    -0.07600
C1527       C  0.90274038  0.31787116  0.63076096     0.05900
C1528       C  0.87530618  0.28995473  0.64879218    -0.02600
Br1529     Br  0.85900937  0.30262276  0.68375989    -0.02300
H1530       H  0.83671156  0.23018084  0.65502090     0.09800
H1531       H  0.93111744  0.32731392  0.59011475     0.07800
Br1532     Br  0.90479901  0.25331554  0.56011413    -0.02800
C1533       C  0.68131455  0.07049620  0.61187908    -0.09400
C1534       C  0.67396591  0.07852698  0.63987550     0.06800
C1535       C  0.70475984  0.10410429  0.65818050    -0.03200
C1536       C  0.74184471  0.12080251  0.64839427    -0.07600
C1537       C  0.74921281  0.11309566  0.62044818     0.05900
C1538       C  0.71871842  0.08747100  0.60210121    -0.02600
Br1539     Br  0.72680043  0.07660297  0.56330178    -0.02300
H1540       H  0.65788198  0.05130803  0.59749996     0.09800
H1541       H  0.76522908  0.14103383  0.66242810     0.07800
Br1542     Br  0.69863469  0.12120718  0.69549725    -0.02800
C1543       C  0.85577264  0.09165870  0.95905877    -0.09400
C1544       C  0.86879062  0.12067600  0.98058884     0.06800
C1545       C  0.89911355  0.12799380  0.99890858    -0.03200
C1546       C  0.91629520  0.10686858  0.99496489    -0.07600
C1547       C  0.90340567  0.07817702  0.97325789     0.05900
C1548       C  0.87280744  0.07046543  0.95520506    -0.02600
Br1549     Br  0.85572240  0.03456324  0.92304733    -0.02300
H1550       H  0.83325418  0.08653418  0.94430724     0.09800
H1551       H  0.93983668  0.11283143  0.00894380     0.07800
Br1552     Br  0.91756748  0.16559828  0.02996408    -0.02800
C1553       C  0.92873787  0.30051391  0.94036249    -0.09400
C1554       C  0.92693212  0.32663070  0.95941776     0.06800
C1555       C  0.90591106  0.31283034  0.98500964    -0.03200
C1556       C  0.88448414  0.27353435  0.98931908    -0.07600
C1557       C  0.88483483  0.24764519  0.96940503     0.05900
C1558       C  0.90793036  0.26137659  0.94511707    -0.02600
Br1559     Br  0.90949363  0.22775752  0.91643342    -0.02300
H1560       H  0.94525989  0.31013218  0.92101515     0.09800
H1561       H  0.86709839  0.26300321  0.50825069     0.07800
Br1562     Br  0.90444658  0.34489141  0.01523655    -0.02800
C1563       C  0.69625814  0.08393851  0.94520911    -0.09400
C1564       C  0.67668177  0.09842305  0.95986401     0.06800
C1565       C  0.69695642  0.12989627  0.97946425    -0.03200
C1566       C  0.73562104  0.14503871  0.48476740    -0.07600
C1567       C  0.75512795  0.13044706  0.97014471     0.05900
C1568       C  0.73512646  0.09986632  0.94981382    -0.02600
Br1569     Br  0.75953130  0.08098592  0.92541242    -0.02300
H1570       H  0.68139481  0.06061753  0.92942659     0.09800
H1571       H  0.75087618  0.16919040  0.49982708     0.07800
Br1572     Br  0.67563625  0.15700888  0.49699815    -0.02800
C1573       C  0.85230500  0.64473107  0.98139436     0.02900
C1574       C  0.81271565  0.62756843  0.98058073    -0.13300
C1575       C  0.79661291  0.64926579  0.97495616     0.00400
C1576       C  0.82047973  0.68897930  0.97244332    -0.11800
C1577       C  0.86005541  0.70644467  0.97396928     0.02900
C1578       C  0.87584722  0.68424810  0.97820958    -0.11200
H1579       H  0.79447237  0.59695152  0.98294381     0.08500
H1580       H  0.80840185  0.70609008  0.96796606     0.06000
H1581       H  0.90645443  0.69757776  0.97777453     0.05800
C1582       C  0.85018890  0.64013480  0.10646620     0.02900
C1583       C  0.81040201  0.61764280  0.10915584    -0.13300
C1584       C  0.78897211  0.63487321  0.11092753     0.00400
C1585       C  0.80731171  0.67469996  0.10994612    -0.11800
C1586       C  0.84694465  0.69768293  0.10827200     0.02900
C1587       C  0.86817004  0.68022719  0.10591235    -0.11200
H1588       H  0.79645573  0.58716736  0.11216157     0.08500
H1589       H  0.79088903  0.68804345  0.11288538     0.06000
H1590       H  0.89893624  0.69798504  0.10566373     0.05800
C1591       C  0.63941698  0.86485228  0.36090975     0.02900
C1592       C  0.67891702  0.88199164  0.36285706    -0.13300
C1593       C  0.69473880  0.85989670  0.36771019     0.00400
C1594       C  0.67079014  0.82002384  0.36882271    -0.11800
C1595       C  0.63119940  0.80220762  0.36574613     0.02900
C1596       C  0.61564806  0.82492303  0.36209276    -0.11200
H1597       H  0.69725231  0.91282735  0.36200132     0.08500
H1598       H  0.68288775  0.80299814  0.37353199     0.06000
H1599       H  0.58505078  0.81172589  0.36151264     0.05800
C1600       C  0.63537560  0.85988736  0.23154706     0.02900
C1601       C  0.61794373  0.82024169  0.23384132    -0.13300
C1602       C  0.63918432  0.80312597  0.23017423     0.00400
C1603       C  0.67860104  0.82600309  0.22694526    -0.11800
C1604       C  0.69651261  0.86578895  0.22584367     0.02900
C1605       C  0.67488939  0.88269140  0.22830426    -0.11200
H1606       H  0.58741245  0.80241593  0.23629335     0.08500
H1607       H  0.69497612  0.81267662  0.22358701     0.06000
H1608       H  0.68860115  0.91335332  0.22638469     0.05800
C1609       C  0.56801402  0.95118984  0.37530878     0.42200
N1610       N  0.52207727  0.95960023  0.38229616     0.01100
C1611       C  0.53771269  0.62951868  0.42569540    -0.06800
H1612       H  0.60579666  0.58612107  0.49252536     0.06600
C1613       C  0.97606414  0.96683545  0.01343771    -0.07100
Co1614     Co  0.54855418  0.54199381  0.39103348     0.74200
N1615       N  0.57594246  0.56532112  0.45189804    -0.26300
Co1616     Co  0.52298686  0.55780875  0.45837739     0.74100
C1617       C  0.00843744  0.99434846  0.03130285     0.42300
N1618       N  0.94751533  0.92030086  0.44666211     0.00700
N1619       N  0.51088114  0.51913437  0.49082301     0.00800
N1620       N  0.55249978  0.61695618  0.38175515    -0.47200
H1621       H  0.61261955  0.01575641  0.37963469     0.06600
N1622       N  0.58592332  0.55980128  0.42615920     0.01100
N1623       N  0.96938893  0.54925994  0.46344881     0.00800
C1624       C  0.92374316  0.55837621  0.46905157     0.42500
N1625       N  0.95762959  0.91408458  0.42123807    -0.25800
C1626       C  0.51361867  0.53991097  0.33135996    -0.06700
N1627       N  0.52991043  0.93282096  0.37700460    -0.46900
N1628       N  0.96186557  0.57634268  0.46811990    -0.47100
C1629       C  0.98135595  0.51114432  0.31376293     0.42200
N1630       N  0.54307641  0.58869640  0.39926506     0.01100
N1631       N  0.91512428  0.94277727  0.39382067    -0.25800
N1632       N  0.55274188  0.99437528  0.38386165    -0.26300
N1633       N  0.90479385  0.94865994  0.41927494     0.00700
H1634       H  0.88620572  0.92177994  0.35301215     0.06600
H1635       H  0.87867543  0.49389984  0.46465751     0.06700
N1636       N  0.53440998  0.59533284  0.42515765    -0.26300
N1637       N  0.97977229  0.98472015  0.48904182    -0.25900
N1638       N  0.97962943  0.98850605  0.35501638     0.01100
C1639       C  0.63620871  0.58171935  0.45230930     0.42500
C1640       C  0.95630947  0.88093505  0.42151681    -0.07200
N1641       N  0.93847019  0.51466493  0.46151361    -0.25900
H1642       H  0.95207079  0.93912839  0.01880663     0.06600
N1643       N  0.62177919  0.56929196  0.42544852    -0.47200
H1644       H  0.96146274  0.86771163  0.40313954     0.06600
C1645       C  0.85463318  0.92584182  0.39266274     0.42300
C1646       C  0.58343007  0.99198358  0.37978128    -0.06700
Co1647     Co  0.96835589  0.95071396  0.38766793     0.73800
N1648       N  0.93844144  0.89251946  0.46450106    -0.46900
C1649       C  0.54919869  0.64374903  0.39657776     0.42600
N1650       N  0.96182650  0.97987037  0.32973953    -0.46900
Co1651     Co  0.94200039  0.96673260  0.45448292     0.73900
C1652       C  0.90796891  0.51747937  0.46491121    -0.07200
C1653       C  0.60564825  0.57861400  0.47005423    -0.06800
N1654       N  0.51033288  0.52325556  0.35636328    -0.26300
N1655       N  0.52856497  0.52638598  0.01607867    -0.47000
H1656       H  0.53493424  0.64335304  0.44477664     0.06600
C1657       C  0.88565185  0.92909530  0.37540308    -0.07200
Cl1658     Cl  0.99547239  0.50435258  0.42286782    -0.50200
C1659       C  0.94353368  0.86654770  0.45043572     0.42400
H1660       H  0.53743026  0.56740801  0.32537461     0.06600
N1661       N  0.86878914  0.93878033  0.41957710    -0.46900
C1662       C  0.63424561  0.56199109  0.14877926     0.42200
N1663       N  0.57902995  0.55441944  0.15098763     0.01100
C1664       C  0.95381978  0.97646745  0.26384445    -0.06800
H1665       H  0.48822851  0.88591860  0.21432195     0.06600
C1666       C  0.92572822  0.88962379  0.12205533    -0.07100
Co1667     Co  0.54498672  0.53000294  0.20897831     0.74200
N1668       N  0.50642204  0.94520641  0.21024740    -0.26300
Co1669     Co  0.95744087  0.94561750  0.20249455     0.74100
C1670       C  0.92300734  0.85904401  0.13898222     0.42300
N1671       N  0.98390479  0.98744611  0.10407588     0.00700
N1672       N  0.94382937  0.90950844  0.16610323     0.00800
N1673       N  0.51103050  0.53180026  0.26653211    -0.47200
H1674       H  0.63073319  0.54261296  0.19522083     0.06600
N1675       N  0.53983483  0.97740433  0.21311648     0.01100
N1676       N  0.90968339  0.94790074  0.19406504     0.00800
C1677       C  0.85476528  0.94098649  0.19723285     0.42500
N1678       N  0.51708551  0.51995295  0.10658689    -0.25800
C1679       C  0.55951075  0.61116539  0.22307396    -0.06700
N1680       N  0.60837076  0.56541162  0.13385465    -0.46900
N1681       N  0.88087307  0.93737948  0.21151989    -0.47100
C1682       C  0.55941694  0.64068791  0.20647787     0.42200
N1683       N  0.50468684  0.51489123  0.24076109     0.01100
N1684       N  0.98176439  0.55687091  0.13454755    -0.25800
N1685       N  0.58430059  0.54444221  0.17638678    -0.26300
N1686       N  0.94822178  0.52484219  0.13196378     0.00700
H1687       H  0.00039397  0.61618336  0.13045076     0.06600
H1688       H  0.85751213  0.95945169  0.15036221     0.06700
N1689       N  0.97157480  0.98227512  0.23863638    -0.26300
N1690       N  0.93845835  0.91956050  0.14074546    -0.25900
N1691       N  0.54307124  0.59154675  0.17885923     0.01100
C1692       C  0.55109252  0.93362996  0.22126918     0.42500
C1693       C  0.53536616  0.52640830  0.08163636    -0.07200
N1694       N  0.90404388  0.95770174  0.16873828    -0.25900
H1695       H  0.91651479  0.88847925  0.10012017     0.06600
N1696       N  0.56749977  0.97178074  0.21966127    -0.47200
H1697       H  0.56177442  0.55230451  0.07657787     0.06600
C1698       C  0.93688362  0.56915947  0.12530503     0.42300
C1699       C  0.61826878  0.54789418  0.17695499    -0.06700
Co1700     Co  0.53074248  0.55627414  0.14246899     0.73800
N1701       N  0.97799380  0.97131195  0.07803442    -0.46900
C1702       C  0.98002664  0.50955416  0.28225049     0.42600
N1703       N  0.54946433  0.62650776  0.17923576    -0.46900
Co1704     Co  0.94314043  0.97201804  0.13591174     0.73900
C1705       C  0.87015264  0.95445256  0.16864428    -0.07200
C1706       C  0.51071796  0.91580224  0.21469908    -0.06800
N1707       N  0.54892241  0.58189105  0.20415502    -0.26300
N1708       N  0.93447998  0.87342941  0.16604435    -0.47000
H1709       H  0.92746544  0.95079382  0.26933747     0.06600
C1710       C  0.97758894  0.58646482  0.13044040    -0.07200
Cl1711     Cl  0.99408324  0.50089985  0.17242829    -0.50200
C1712       C  0.00939625  0.99405973  0.06273250     0.42400
H1713       H  0.56829121  0.61225443  0.24511857     0.06600
N1714       N  0.92053560  0.53085164  0.12620299    -0.46900
C1715       C  0.59888896  0.70738984  0.19177515    -0.09400
C1716       C  0.57895914  0.68198048  0.21373380     0.06800
C1717       C  0.57860325  0.69681151  0.24141958    -0.03200
C1718       C  0.59877169  0.73649712  0.24667428    -0.07600
C1719       C  0.61937443  0.76156661  0.22474744     0.05900
C1720       C  0.61885833  0.74675253  0.19700299    -0.02600
Br1721     Br  0.64319641  0.77892361  0.16498580    -0.02300
H1722       H  0.59919151  0.69666027  0.17029226     0.09800
H1723       H  0.59812687  0.74787604  0.26782183     0.07800
Br1724     Br  0.54917253  0.66488600  0.27219449    -0.02800
C1725       C  0.76305935  0.88919187  0.23943931    -0.09400
C1726       C  0.73739697  0.88898934  0.21988375     0.06800
C1727       C  0.75085593  0.90849805  0.19411225    -0.03200
C1728       C  0.78945090  0.92677988  0.18790433    -0.07600
C1729       C  0.81524079  0.92562569  0.20679622     0.05900
C1730       C  0.80171396  0.90741356  0.23335252    -0.02600
Br1731     Br  0.83313931  0.90493375  0.26244124    -0.02300
H1732       H  0.75274550  0.87438442  0.25939971     0.09800
H1733       H  0.79881158  0.94076907  0.16762825     0.07800
Br1734     Br  0.71743639  0.90820978  0.16543847    -0.01800
C1735       C  0.56138934  0.88151482  0.20834420    -0.09400
C1736       C  0.57172415  0.91419166  0.22547633     0.06800
C1737       C  0.60216840  0.92819237  0.24536370    -0.03200
C1738       C  0.62214037  0.90969604  0.24741224    -0.07600
C1739       C  0.61222521  0.87729681  0.22990228     0.05900
C1740       C  0.58162276  0.86334481  0.21002156    -0.02600
Br1741     Br  0.56822380  0.82220507  0.18248657    -0.02300
H1742       H  0.53841867  0.87096021  0.19265196     0.09800
H1743       H  0.64545445  0.92055595  0.26282711     0.07800
Br1744     Br  0.61652019  0.97112012  0.27116776    -0.02800
C1745       C  0.59167983  0.69551374  0.36394768    -0.09400
C1746       C  0.56566614  0.68336750  0.38662526     0.06800
C1747       C  0.55768452  0.70985356  0.39948724    -0.03200
C1748       C  0.57828566  0.74809337  0.39153044    -0.07600
C1749       C  0.60626917  0.76062760  0.37039817     0.05900
C1750       C  0.61169075  0.73354745  0.35569025    -0.02600
Br1751     Br  0.64549691  0.74671376  0.32382725    -0.02300
H1752       H  0.59739500  0.67558808  0.35293583     0.09800
H1753       H  0.57308975  0.76841111  0.40252950     0.07800
Br1754     Br  0.51815202  0.69614872  0.42687294    -0.02800
C1755       C  0.75622965  0.86560530  0.35728724    -0.09400
C1756       C  0.73604857  0.87834946  0.37320542     0.06800
C1757       C  0.75518162  0.90672453  0.39517791    -0.03200
C1758       C  0.79384841  0.92208569  0.40042979    -0.07600
C1759       C  0.81422594  0.90944249  0.38455241     0.05900
C1760       C  0.79477440  0.88037116  0.36291512    -0.02600
Br1761     Br  0.81674824  0.85593429  0.34220136    -0.02300
H1762       H  0.74157924  0.84322715  0.34078177     0.09800
H1763       H  0.80792133  0.94362727  0.41755079     0.07800
Br1764     Br  0.72971629  0.92340369  0.42052809    -0.02800
C1765       C  0.63333654  0.91487387  0.38623147    -0.09400
C1766       C  0.62311998  0.88912139  0.36256866     0.06800
C1767       C  0.59619707  0.88562412  0.34230343    -0.03200
C1768       C  0.57899629  0.90675596  0.34655348    -0.07600
C1769       C  0.58876867  0.93186337  0.37051932     0.05900
C1770       C  0.61646147  0.93623992  0.39032916    -0.02600
Br1771     Br  0.62967549  0.96808664  0.42465969    -0.02300
H1772       H  0.65356997  0.91735173  0.40219441     0.09800
H1773       H  0.55786578  0.90355630  0.33112627     0.07800
Br1774     Br  0.58272127  0.85323058  0.30832753    -0.02800
C1775       C  0.90311560  0.63865012  0.13011830    -0.09400
C1776       C  0.87345467  0.62264092  0.10949105     0.06800
C1777       C  0.86570523  0.58951233  0.09353826    -0.03200
C1778       C  0.88663937  0.57253941  0.09911333    -0.07600
C1779       C  0.91609981  0.58853020  0.11987714     0.05900
C1780       C  0.92450211  0.62219806  0.13528953    -0.02600
Br1781     Br  0.96248768  0.64562871  0.16540093    -0.02300
H1782       H  0.90906209  0.66362260  0.14298823     0.09800
H1783       H  0.88025188  0.54700712  0.08682162     0.07800
Br1784     Br  0.82846247  0.56741268  0.06288547    -0.02800
C1785       C  0.85741985  0.75125211  0.14075574    -0.09400
C1786       C  0.86603659  0.73933479  0.11484278     0.06800
C1787       C  0.89272977  0.76715792  0.09645374    -0.03200
C1788       C  0.91058882  0.80612897  0.10438794    -0.07600
C1789       C  0.90274072  0.81787132  0.13076104     0.05900
C1790       C  0.87530659  0.78995474  0.14879223    -0.02600
Br1791     Br  0.85901007  0.80262250  0.18376021    -0.02300
H1792       H  0.83671199  0.73018074  0.15502076     0.09800
H1793       H  0.93111728  0.82731431  0.09011459     0.07800
Br1794     Br  0.90479859  0.75331632  0.06011357    -0.02800
C1795       C  0.68131486  0.57049814  0.11187843    -0.09400
C1796       C  0.67396657  0.57852725  0.13987549     0.06800
C1797       C  0.70476085  0.60410281  0.15818093    -0.03200
C1798       C  0.74184563  0.62080084  0.14839451    -0.07600
C1799       C  0.74921331  0.61309570  0.12044780     0.05900
C1800       C  0.71871862  0.58747291  0.10210036    -0.02600
Br1801     Br  0.72680013  0.57660718  0.06330015    -0.02300
H1802       H  0.65788212  0.55131134  0.09749897     0.09800
H1803       H  0.76523028  0.64103083  0.16242869     0.07800
Br1804     Br  0.69863662  0.62120382  0.19549869    -0.02800
C1805       C  0.85577264  0.59165923  0.45905856    -0.09400
C1806       C  0.86879068  0.62067647  0.48058872     0.06800
C1807       C  0.89911358  0.62799415  0.49890842    -0.03200
C1808       C  0.91629522  0.60686892  0.49496461    -0.07600
C1809       C  0.90340569  0.57817746  0.47325750     0.05900
C1810       C  0.87280744  0.57046594  0.45520472    -0.02600
Br1811     Br  0.85572234  0.53456385  0.42304687    -0.02300
H1812       H  0.83325416  0.58653477  0.44430713     0.09800
H1813       H  0.93983668  0.61283172  0.50894347     0.07800
Br1814     Br  0.91756765  0.66559860  0.52996395    -0.02800
C1815       C  0.92873663  0.80051377  0.44036188    -0.09400
C1816       C  0.92693196  0.82663091  0.45941750     0.06800
C1817       C  0.90591186  0.81283087  0.48500983    -0.03200
C1818       C  0.88448483  0.77353492  0.48931946    -0.07600
C1819       C  0.88483452  0.74764549  0.46940513     0.05900
C1820       C  0.90792905  0.76137651  0.44511664    -0.02600
Br1821     Br  0.90949053  0.72775692  0.41643249    -0.02300
H1822       H  0.94525783  0.81013173  0.42101415     0.09800
H1823       H  0.86709535  0.76300188  0.00824974     0.07800
Br1824     Br  0.90444926  0.84489239  0.51523727    -0.02800
C1825       C  0.69625801  0.58393877  0.44520967    -0.09400
C1826       C  0.67668161  0.59842326  0.45986458     0.06800
C1827       C  0.69695624  0.62989655  0.47946479    -0.03200
C1828       C  0.73562059  0.64503822  0.98476716    -0.07600
C1829       C  0.75512777  0.63044735  0.47014529     0.05900
C1830       C  0.73512633  0.59986666  0.44981438    -0.02600
Br1831     Br  0.75953125  0.58098646  0.42541292    -0.02300
H1832       H  0.68139475  0.56061785  0.42942711     0.09800
H1833       H  0.75087578  0.66918984  0.99982689     0.07800
Br1834     Br  0.67563583  0.65700811  0.99699865    -0.02800
C1835       C  0.85230536  0.64473168  0.48139460     0.02900
C1836       C  0.81271598  0.62756898  0.48058107    -0.13300
C1837       C  0.79661313  0.64926627  0.47495657     0.00400
C1838       C  0.82047985  0.68897982  0.47244380    -0.11800
C1839       C  0.86005555  0.70644521  0.47396961     0.02900
C1840       C  0.87584745  0.68424871  0.47820975    -0.11200
H1841       H  0.79447279  0.59695206  0.48294414     0.08500
H1842       H  0.80840193  0.70609054  0.46796664     0.06000
H1843       H  0.90645469  0.69757841  0.47777447     0.05800
C1844       C  0.85018828  0.64013448  0.60646661     0.02900
C1845       C  0.81040137  0.61764257  0.60915612    -0.13300
C1846       C  0.78897155  0.63487306  0.61092786     0.00400
C1847       C  0.80731126  0.67469982  0.60994656    -0.11800
C1848       C  0.84694422  0.69768268  0.60827248     0.02900
C1849       C  0.86816950  0.68022685  0.60591285    -0.11200
H1850       H  0.79645501  0.58716711  0.61216178     0.08500
H1851       H  0.79088866  0.68804339  0.61288582     0.06000
H1852       H  0.89893574  0.69798466  0.60566432     0.05800
C1853       C  0.63941664  0.86485170  0.86091014     0.02900
C1854       C  0.67891666  0.88199101  0.86285757    -0.13300
C1855       C  0.69473835  0.85989592  0.86771052     0.00400
C1856       C  0.67078969  0.82002306  0.86882276    -0.11800
C1857       C  0.63119898  0.80220694  0.86574605     0.02900
C1858       C  0.61564771  0.82492244  0.86209281    -0.11200
H1859       H  0.69725198  0.91282670  0.86200207     0.08500
H1860       H  0.68288725  0.80299725  0.87353198     0.06000
H1861       H  0.58505045  0.81172531  0.86151257     0.05800
C1862       C  0.63537506  0.85988704  0.73154701     0.02900
C1863       C  0.61794323  0.82024138  0.73384133    -0.13300
C1864       C  0.63918384  0.80312569  0.73017423     0.00400
C1865       C  0.67860056  0.82600283  0.72694531    -0.11800
C1866       C  0.69651212  0.86578869  0.72584377     0.02900
C1867       C  0.67488885  0.88269110  0.72830431    -0.11200
H1868       H  0.58741197  0.80241562  0.73629341     0.08500
H1869       H  0.69497569  0.81267637  0.72358709     0.06000
H1870       H  0.68860060  0.91335302  0.72638476     0.05800
C1871       C  0.56801359  0.95118927  0.87530906     0.42200
N1872       N  0.52207684  0.95959969  0.88229624     0.01100
C1873       C  0.53771199  0.62951808  0.92569515    -0.06800
H1874       H  0.60579651  0.58612089  0.99252518     0.06600
C1875       C  0.97606379  0.96683560  0.51343764    -0.07100
Co1876     Co  0.54855371  0.54199324  0.89103344     0.74200
N1877       N  0.57594219  0.56532081  0.95189792    -0.26300
Co1878     Co  0.52298660  0.55780842  0.95837735     0.74100
C1879       C  0.00843703  0.99434848  0.53130288     0.42300
N1880       N  0.94751526  0.92030051  0.94666229     0.00700
N1881       N  0.51088115  0.51913424  0.99082302     0.00800
N1882       N  0.55249919  0.61695552  0.88175497    -0.47200
H1883       H  0.61261914  0.01575584  0.87963504     0.06600
N1884       N  0.58592299  0.55980088  0.92615907     0.01100
N1885       N  0.96938864  0.54925958  0.96344890     0.00800
C1886       C  0.92374282  0.55837569  0.96905187     0.42500
N1887       N  0.95762937  0.91408410  0.92123822    -0.25800
C1888       C  0.51361804  0.53991032  0.83136005    -0.06700
N1889       N  0.52991000  0.93282041  0.87700476    -0.46900
N1890       N  0.96186522  0.57634228  0.96812001    -0.47100
C1891       C  0.98135527  0.51114356  0.81376307     0.42200
N1892       N  0.54307589  0.58869581  0.89926495     0.01100
N1893       N  0.91512389  0.94277668  0.89382093    -0.25800
N1894       N  0.55274145  0.99437474  0.88386174    -0.26300
N1895       N  0.90479355  0.94865942  0.91927523     0.00700
H1896       H  0.88620517  0.92177908  0.85301254     0.06600
H1897       H  0.87867520  0.49389931  0.96465800     0.06700
N1898       N  0.53440945  0.59533231  0.92515751    -0.26300
N1899       N  0.97977243  0.98471991  0.98904189    -0.25900
N1900       N  0.97962890  0.98850548  0.85501646     0.01100
C1901       C  0.63620847  0.58171912  0.95230909     0.42500
C1902       C  0.95630921  0.88093455  0.92151703    -0.07200
N1903       N  0.93846996  0.51466453  0.96151385    -0.25900
H1904       H  0.95207034  0.93912859  0.51880647     0.06600
N1905       N  0.62177886  0.56929162  0.92544833    -0.47200
H1906       H  0.96146228  0.86771093  0.90313978     0.06600
C1907       C  0.85463270  0.92584106  0.89266316     0.42300
C1908       C  0.58342965  0.99198302  0.87978153    -0.06700
Co1909     Co  0.96835549  0.95071342  0.88766805     0.73800
N1910       N  0.93844145  0.89251920  0.96450130    -0.46900
C1911       C  0.54919796  0.64374835  0.89657748     0.42600
N1912       N  0.96182586  0.97986983  0.82973966    -0.46900
Co1913     Co  0.94200033  0.96673223  0.95448311     0.73900
C1914       C  0.90796864  0.51747887  0.96491158    -0.07200
C1915       C  0.60564804  0.57861377  0.97005405    -0.06800
N1916       N  0.51033236  0.52325491  0.85636334    -0.26300
N1917       N  0.52856477  0.52638602  0.51607875    -0.47000
H1918       H  0.53493355  0.64335250  0.94477635     0.06600
C1919       C  0.88565135  0.92909455  0.87540345    -0.07200
Cl1920     Cl  0.99547198  0.50435210  0.92286792    -0.50200
C1921       C  0.94353357  0.86654735  0.95043599     0.42400
H1922       H  0.53742963  0.56740741  0.82537469     0.06600
N1923       N  0.86878882  0.93877974  0.91957747    -0.46900
C1924       C  0.63424491  0.56199080  0.64877925     0.42200
N1925       N  0.57902930  0.55441921  0.65098770     0.01100
C1926       C  0.95381914  0.97646697  0.76384453    -0.06800
H1927       H  0.48822803  0.88591822  0.71432182     0.06600
C1928       C  0.92572788  0.88962349  0.62205540    -0.07100
Co1929     Co  0.54498608  0.53000266  0.70897837     0.74200
N1930       N  0.50642148  0.94520605  0.71024747    -0.26300
Co1931     Co  0.95744030  0.94561719  0.70249463     0.74100
C1932       C  0.92300704  0.85904374  0.63898233     0.42300
N1933       N  0.98390424  0.98744580  0.60407595     0.00700
N1934       N  0.94382882  0.90950813  0.66610333     0.00800
N1935       N  0.51102984  0.53179981  0.76653224    -0.47200
H1936       H  0.63073261  0.54261282  0.69522086     0.06600
N1937       N  0.53983424  0.97740396  0.71311656     0.01100
N1938       N  0.90968283  0.94790045  0.69406513     0.00800
C1939       C  0.85476476  0.94098630  0.69723297     0.42500
N1940       N  0.51708499  0.51995272  0.60658692    -0.25800
C1941       C  0.55951023  0.61116516  0.72307399    -0.06700
N1942       N  0.60837008  0.56541140  0.63385469    -0.46900
N1943       N  0.88087253  0.93737925  0.71152000    -0.47100
C1944       C  0.55941634  0.64068765  0.70647792     0.42200
N1945       N  0.50468616  0.51489090  0.74076116     0.01100
N1946       N  0.98176372  0.55687053  0.63454751    -0.25800
N1947       N  0.58429993  0.54444194  0.67638682    -0.26300
N1948       N  0.94822112  0.52484181  0.63196366     0.00700
H1949       H  0.00039326  0.61618298  0.63045097     0.06600
H1950       H  0.85751162  0.95945151  0.65036233     0.06700
N1951       N  0.97157419  0.98227474  0.73863645    -0.26300
N1952       N  0.93845786  0.91956019  0.64074553    -0.25900
N1953       N  0.54307051  0.59154645  0.67885929     0.01100
C1954       C  0.55109198  0.93362962  0.72126918     0.42500
C1955       C  0.53536565  0.52640814  0.58163639    -0.07200
N1956       N  0.90404331  0.95770141  0.66873836    -0.25900
H1957       H  0.91651449  0.88847890  0.60012022     0.06600
N1958       N  0.56749922  0.97178040  0.71966127    -0.47200
H1959       H  0.56177386  0.55230438  0.57657787     0.06600
C1960       C  0.93688296  0.56915908  0.62530506     0.42300
C1961       C  0.61826815  0.54789394  0.67695503    -0.06700
Co1962     Co  0.53074184  0.55627387  0.64246904     0.73800
N1963       N  0.97799327  0.97131175  0.57803445    -0.46900
C1964       C  0.98002593  0.50955359  0.78225062     0.42600
N1965       N  0.54946358  0.62650746  0.67923583    -0.46900
Co1966     Co  0.94313987  0.97201769  0.63591181     0.73900
C1967       C  0.87015211  0.95445233  0.66864438    -0.07200
C1968       C  0.51071741  0.91580187  0.71469905    -0.06800
N1969       N  0.54892179  0.58189080  0.70415506    -0.26300
N1970       N  0.93447950  0.87342913  0.66604447    -0.47000
H1971       H  0.92746481  0.95079331  0.76933751     0.06600
C1972       C  0.97758826  0.58646444  0.63044045    -0.07200
Cl1973     Cl  0.99408254  0.50089958  0.67242834    -0.50200
C1974       C  0.00939573  0.99405962  0.56273255     0.42400
H1975       H  0.56829074  0.61225422  0.74511858     0.06600
N1976       N  0.92053494  0.53085126  0.62620292    -0.46900
C1977       C  0.59888818  0.70738957  0.69177511    -0.09400
C1978       C  0.57895853  0.68198021  0.71373381     0.06800
C1979       C  0.57860272  0.69681120  0.74141962    -0.03200
C1980       C  0.59877128  0.73649684  0.74667432    -0.07600
C1981       C  0.61937391  0.76156633  0.72474743     0.05900
C1982       C  0.61885754  0.74675225  0.69700292    -0.02600
Br1983     Br  0.64319538  0.77892335  0.66498568    -0.02300
H1984       H  0.59919060  0.69665998  0.67029218     0.09800
H1985       H  0.59812662  0.74787579  0.76782188     0.07800
Br1986     Br  0.54917190  0.66488557  0.77219453    -0.02800
C1987       C  0.76305890  0.88919173  0.73943947    -0.09400
C1988       C  0.73739648  0.88898911  0.71988386     0.06800
C1989       C  0.75085541  0.90849780  0.69411236    -0.03200
C1990       C  0.78945037  0.92677964  0.68790444    -0.07600
C1991       C  0.81524031  0.92562560  0.70679639     0.05900
C1992       C  0.80171356  0.90741362  0.73335276    -0.02600
Br1993     Br  0.83313914  0.90493437  0.76244170    -0.02300
H1994       H  0.75274505  0.87438431  0.75939987     0.09800
H1995       H  0.79881102  0.94076870  0.66762831     0.07800
Br1996     Br  0.71743585  0.90820952  0.66543857    -0.01800
C1997       C  0.56138870  0.88151443  0.70834423    -0.09400
C1998       C  0.57172360  0.91419133  0.72547634     0.06800
C1999       C  0.60216795  0.92819210  0.74536361    -0.03200
C2000       C  0.62213993  0.90969579  0.74741208    -0.07600
C2001       C  0.61222467  0.87729650  0.72990219     0.05900
C2002       C  0.58162215  0.86334443  0.71002155    -0.02600
Br2003     Br  0.56822309  0.82220454  0.68248666    -0.02300
H2004       H  0.53841798  0.87095979  0.69265207     0.09800
H2005       H  0.64545410  0.92055574  0.76282689     0.07800
Br2006     Br  0.61651988  0.97111989  0.77116765    -0.02800
C2007       C  0.59167916  0.69551304  0.86394739    -0.09400
C2008       C  0.56566535  0.68336679  0.88662490     0.06800
C2009       C  0.55768364  0.70985282  0.89948681    -0.03200
C2010       C  0.57828493  0.74809266  0.89153009    -0.07600
C2011       C  0.60626861  0.76062693  0.87039796     0.05900
C2012       C  0.61169020  0.73354679  0.85569004    -0.02600
Br2013     Br  0.64549647  0.74671321  0.82382712    -0.02300
H2014       H  0.59739431  0.67558738  0.85293555     0.09800
H2015       H  0.57308902  0.76841042  0.90252917     0.07800
Br2016     Br  0.51815095  0.69614789  0.92687236    -0.02800
C2017       C  0.75622916  0.86560454  0.85728763    -0.09400
C2018       C  0.73604805  0.87834858  0.87320587     0.06800
C2019       C  0.75518100  0.90672344  0.89517851    -0.03200
C2020       C  0.79384780  0.92208466  0.90043038    -0.07600
C2021       C  0.81422542  0.90944166  0.88455289     0.05900
C2022       C  0.79477390  0.88037044  0.86291553    -0.02600
Br2023     Br  0.81674779  0.85593373  0.84220165    -0.02300
H2024       H  0.74157881  0.84322647  0.84078211     0.09800
H2025       H  0.80792066  0.94362614  0.91755146     0.07800
Br2026     Br  0.72971559  0.92340234  0.92052885    -0.02800
C2027       C  0.63333585  0.91487302  0.88623211    -0.09400
C2028       C  0.62311963  0.88912082  0.86256912     0.06800
C2029       C  0.59619702  0.88562387  0.84230374    -0.03200
C2030       C  0.57899621  0.90675569  0.84655374    -0.07600
C2031       C  0.58876822  0.93186277  0.87051973     0.05900
C2032       C  0.61646070  0.93623901  0.89032976    -0.02600
Br2033     Br  0.62967414  0.96808531  0.92466047    -0.02300
H2034       H  0.65356906  0.91735072  0.90219516     0.09800
H2035       H  0.55786599  0.90355628  0.83112635     0.07800
Br2036     Br  0.58272173  0.85323087  0.80832760    -0.02800
C2037       C  0.90311473  0.63864945  0.63011884    -0.09400
C2038       C  0.87345396  0.62264050  0.60949146     0.06800
C2039       C  0.86570473  0.58951218  0.59353837    -0.03200
C2040       C  0.88663896  0.57253930  0.59911326    -0.07600
C2041       C  0.91609916  0.58852980  0.61987728     0.05900
C2042       C  0.92450122  0.62219736  0.63528998    -0.02600
Br2043     Br  0.96248647  0.64562761  0.66540167    -0.02300
H2044       H  0.90906117  0.66362182  0.64298893     0.09800
H2045       H  0.88025172  0.54700729  0.58682129     0.07800
Br2046     Br  0.82846223  0.56741300  0.56288537    -0.02800
C2047       C  0.85741939  0.75125198  0.64075597    -0.09400
C2048       C  0.86603626  0.73933452  0.61484315     0.06800
C2049       C  0.89272970  0.76715753  0.59645415    -0.03200
C2050       C  0.91058882  0.80612859  0.60438828    -0.07600
C2051       C  0.90274043  0.81787107  0.63076120     0.05900
C2052       C  0.87530610  0.78995460  0.64879234    -0.02600
Br2053     Br  0.85900941  0.80262254  0.68376012    -0.02300
H2054       H  0.83671139  0.73018068  0.65502102     0.09800
H2055       H  0.93111754  0.82731387  0.59011500     0.07800
Br2056     Br  0.90479884  0.75331581  0.56011414    -0.02800
C2057       C  0.68131434  0.57049705  0.61187882    -0.09400
C2058       C  0.67396588  0.57852708  0.63987554     0.06800
C2059       C  0.70475996  0.60410361  0.65818072    -0.03200
C2060       C  0.74184477  0.62080162  0.64839444    -0.07600
C2061       C  0.74921269  0.61309557  0.62044806     0.05900
C2062       C  0.71871815  0.58747182  0.60210083    -0.02600
Br2063     Br  0.72679996  0.57660497  0.56330097    -0.02300
H2064       H  0.65788166  0.55130953  0.59749956     0.09800
H2065       H  0.76522931  0.64103231  0.66242847     0.07800
Br2066     Br  0.69863520  0.62120556  0.69549794    -0.02800
C2067       C  0.85577214  0.59165839  0.95905867    -0.09400
C2068       C  0.86879024  0.62067581  0.98058868     0.06800
C2069       C  0.89911323  0.62799371  0.99890837    -0.03200
C2070       C  0.91629487  0.60686849  0.99496471    -0.07600
C2071       C  0.90340529  0.57817685  0.97325774     0.05900
C2072       C  0.87280700  0.57046517  0.95520494    -0.02600
Br2073     Br  0.85572180  0.53456273  0.92304734    -0.02300
H2074       H  0.83325357  0.58653374  0.94430724     0.09800
H2075       H  0.93983636  0.61283142  0.00894360     0.07800
Br2076     Br  0.91756719  0.66559828  0.02996385    -0.02800
C2077       C  0.92873770  0.80051375  0.94036264    -0.09400
C2078       C  0.92693176  0.82663055  0.95941778     0.06800
C2079       C  0.90591040  0.81283014  0.98500954    -0.03200
C2080       C  0.88448352  0.77353415  0.98931901    -0.07600
C2081       C  0.88483446  0.74764502  0.96940509     0.05900
C2082       C  0.90793018  0.76137643  0.94511723    -0.02600
Br2083     Br  0.90949346  0.72775729  0.91643363    -0.02300
H2084       H  0.94525989  0.81013199  0.92101538     0.09800
H2085       H  0.86709754  0.76300296  0.50825063     0.07800
Br2086     Br  0.90444565  0.84489116  0.01523633    -0.02800
C2087       C  0.69625766  0.58393832  0.94520941    -0.09400
C2088       C  0.67668135  0.59842289  0.95986434     0.06800
C2089       C  0.69695608  0.62989615  0.97946455    -0.03200
C2090       C  0.73562074  0.64503860  0.48476751    -0.07600
C2091       C  0.75512756  0.63044696  0.97014490     0.05900
C2092       C  0.73512600  0.59986618  0.94981406    -0.02600
Br2093     Br  0.75953080  0.58098591  0.92541258    -0.02300
H2094       H  0.68139430  0.56061735  0.92942688     0.09800
H2095       H  0.75087590  0.66919021  0.49982722     0.07800
Br2096     Br  0.67563585  0.65700863  0.49699855    -0.02800
loop_ 
_geom_bond_atom_site_label_1 
_geom_bond_atom_site_label_2 
_geom_bond_distance 
_geom_bond_site_symmetry_2 
_ccdc_geom_bond_type 
C1            C2   1.402       .  A
C1            C6   1.400       .  A
C1          C496   1.472       .  S
C2            C3   1.401       .  A
C2            H7   1.084       .  S
C3            C4   1.403       .  A
C3          C519   1.479       .  S
C4            C5   1.401       .  A
C4            H8   1.084       .  S
C5            C6   1.397       .  A
C5          C509   1.469       .  S
C6            H9   1.084       .  S
C10          C11   1.408       .  A
C10          C15   1.409       .  A
C10         C204   1.488       .  S
C11          C12   1.402       .  A
C11          H16   1.083       .  S
C12          C13   1.400       .  A
C12         C227   1.474       .  S
C13          C14   1.400       .  A
C13          H17   1.085       .  S
C14          C15   1.403       .  A
C14         C214   1.483       .  S
C15          H18   1.084       .  S
C19          C20   1.400       .  A
C19          C24   1.404       .  A
C19         C194   1.475       .  S
C20          C21   1.399       .  A
C20          H25   1.084       .  S
C21          C22   1.403       .  A
C21         C184   1.479       .  S
C22          C23   1.404       .  A
C22          H26   1.084       .  S
C23          C24   1.404       .  A
C23         C177   1.483       .  S
C24          H27   1.084       .  S
C28          C29   1.402       .  A
C28          C33   1.403       .  A
C28         C167   1.475       .  S
C29          C30   1.397       .  A
C29          H34   1.084       .  S
C30          C31   1.399       .  A
C30         C147   1.469       .  S
C31          C32   1.400       .  A
C31          H35   1.085       .  S
C32          C33   1.399       .  A
C32         C154   1.470       .  S
C33          H36   1.084       .  S
C37          C74   1.456       .  S
C37         C197   1.462       .  S
C37          N55   1.346       .  A
N38          N55   1.322       .  A
N38          N60   1.320       .  A
N38       Co1123   2.073   1_455  S
C39          C77   1.469       .  S
C39          H84   1.079       .  S
C39          N64   1.341       .  A
H40          C81   1.080       .  S
C41          C45   1.454       .  S
C41          H70   1.082       .  S
C41         N327   1.337   1_554  A
Co42         N50   2.084       .  S
Co42         N82   2.085       .  S
Co42         N58   2.079       .  S
Co42        N584   2.077   1_545  S
Co42      Cl1134   2.441   1_455  S
N43          C81   1.339       .  A
N43          N50   1.318       .  A
N43         Co44   2.071       .  S
Co44         N47   2.091       .  S
Co44         N64   2.092       .  S
Co44       N1099   2.071   1_455  S
Co44      Cl1134   2.452   1_455  S
C45         C140   1.464       .  S
C45        N1655   1.353       .  A
N46          N53   1.317       .  A
N46          N76   1.320       .  A
N46         Co79   2.066       .  S
N47        N1637   1.319   1_445  A
N47         N345   1.326       .  A
N48          C77   1.352       .  A
N48          N58   1.323       .  A
H49          C74   1.081       .  S
N50          N71   1.322       .  A
N51          N69   1.320       .  A
N51          N56   1.321       .  A
N51       Co1092   2.071       .  S
C52          C80   1.456       .  S
C52         C237   1.461       .  S
C52          N56   1.346       .  A
N53          C68   1.339       .  A
N53         Co75   2.086       .  S
C54        C1105   1.460   1_455  S
C54          H88   1.082       .  S
C54          N82   1.339       .  A
C57         C130   1.466       .  S
C57        C1102   1.460       .  S
C57         N602   1.350   1_545  A
N58          N64   1.318       .  A
N59          C85   1.338       .  A
N59          N61   1.317       .  A
N59         Co75   2.073       .  S
N60          C74   1.340       .  A
N60        Co566   2.077       .  S
N61          N89   1.323       .  A
N61         Co79   2.083       .  S
H62          C85   1.079       .  S
H63          C80   1.081   1_565  S
N65         C303   1.337       .  A
N65        N1619   1.319       .  A
N65         Co79   2.073       .  S
N66          N78   1.325       .  A
N66        N1654   1.319       .  A
N66         Co75   2.080       .  S
C67          C81   1.461       .  S
C67         C254   1.476       .  S
C67          N71   1.350       .  A
C68          C87   1.469       .  S
C68          H72   1.081       .  S
N69          C80   1.338       .  A
N69        Co603   2.074   1_545  S
C73          C85   1.462       .  S
C73         C187   1.481       .  S
C73          N89   1.352       .  A
Co75       N1086   2.073       .  S
Co75       Cl610   2.447       .  S
N76          C87   1.347       .  A
C77         C174   1.488       .  S
N78         C581   1.350       .  A
Co79        N593   2.074       .  S
Co79       Cl610   2.443       .  S
N82        N1638   1.319   1_445  A
N83        C1617   1.353   1_545  A
N83         N309   1.326   1_554  A
Cl86      Co1090   2.441       .  S
Cl86      Co1092   2.452       .  S
Cl86       Co599   2.447   1_545  S
Cl86       Co603   2.443   1_545  S
C87         C244   1.483       .  S
C90         C127   1.460       .  S
C90         C224   1.474       .  S
C90         N108   1.350       .  A
N91         N108   1.325       .  A
N91         N113   1.319       .  A
N91        Co128   2.083       .  S
C92         C654   1.462       .  S
C92         H137   1.082       .  S
C92         N117   1.342       .  A
H93         C134   1.082   1_655  S
C94          C98   1.460       .  S
C94         H123   1.082       .  S
C94         N118   1.343       .  A
Co95        N113   2.080       .  S
Co95        N135   2.077       .  S
Co95        N111   2.076       .  S
Co95        N627   2.079   1_545  S
Co95      Cl1187   2.449   1_455  S
N96         C134   1.337       .  A
N96         N103   1.320       .  A
N96       Co1145   2.072   1_455  S
Co97        N100   2.089       .  S
Co97        N117   2.090       .  S
Co97        N104   2.070       .  S
Co97       N1144   2.072       .  S
Co97       Cl663   2.446       .  S
C98         C217   1.478       .  S
C98         N136   1.350       .  A
N99         N129   1.323       .  A
N99        N1678   1.320       .  A
N99        Co132   2.089       .  S
N100        N118   1.320       .  A
N100        N136   1.324       .  A
N101       C1178   1.348   1_455  A
N101        N111   1.323       .  A
H102        C127   1.081       .  S
N103        N124   1.323       .  A
N103       Co619   2.079       .  S
N104        N122   1.318       .  A
N104        N109   1.320       .  A
C105        C133   1.467       .  S
C105        C157   1.483       .  S
C105        N109   1.347       .  A
N106        C121   1.340       .  A
N106       N1671   1.320   1_445  A
N106       Co128   2.074       .  S
C107        C110   1.463       .  S
C107        H141   1.081       .  S
C107        N135   1.342       .  A
C110        C144   1.474       .  S
C110        N131   1.349       .  A
N111       N1689   1.319   1_445  A
N112        C138   1.339       .  A
N112        N114   1.319       .  A
N112      Co1176   2.077       .  S
N113        C127   1.339       .  A
N114        N142   1.326       .  A
N114       Co656   2.088   1_545  S
H115        C138   1.081       .  S
H116        C133   1.081       .  S
N117       N1683   1.319       .  A
N118       Co132   2.086       .  S
N119        N131   1.320       .  A
N119        N135   1.317       .  A
N119       Co128   2.076       .  S
C120        C134   1.456       .  S
C120        C164   1.466       .  S
C120        N124   1.348       .  A
C121       C1712   1.457   1_545  S
C121        H125   1.082       .  S
N122        C133   1.339       .  A
N122       Co132   2.083       .  S
C126        C138   1.460       .  S
C126        C207   1.478       .  S
C126        N142   1.351       .  A
Co128      N1160   2.077   1_455  S
Co128     Cl1187   2.445   1_455  S
N129        C140   1.351       .  A
C130        C616   1.462   1_545  S
C130       N1149   1.348       .  A
Co132       N638   2.088       .  S
Co132      Cl663   2.448       .  S
Cl139     Co1143   2.449       .  S
Cl139      Co621   2.446   1_545  S
Cl139     Co1176   2.445       .  S
Cl139      Co656   2.448   1_545  S
C140       C1693   1.457       .  S
C143        C144   1.404       .  A
C143        C148   1.390       .  A
C143        H150   1.083       .  S
C144        C145   1.412       .  A
C145        C146   1.401       .  A
C145       Br152   1.918       .  S
C146        C147   1.402       .  A
C146        H151   1.084       .  S
C147        C148   1.406       .  A
C148       Br149   1.922       .  S
C153        C154   1.398       .  A
C153        C158   1.396       .  A
C153        H160   1.084       .  S
C154        C155   1.406       .  A
C155        C156   1.395       .  A
C155       Br162   1.921       .  S
C156        C157   1.407       .  A
C156        H161   1.081       .  S
C157        C158   1.419       .  A
C158       Br159   1.923       .  S
C163        C164   1.399       .  A
C163        C168   1.393       .  A
C163        H170   1.084       .  S
C164        C165   1.408       .  A
C165        C166   1.396       .  A
C165       Br172   1.920       .  S
C166        C167   1.404       .  A
C166        H171   1.084       .  S
C167        C168   1.413       .  A
C168       Br169   1.923       .  S
C173        C174   1.408       .  A
C173        C178   1.398       .  A
C173        H180   1.083       .  S
C174        C175   1.415       .  A
C175        C176   1.400       .  A
C175       Br182   1.919       .  S
C176        C177   1.404       .  A
C176        H181   1.084       .  S
C177        C178   1.408       .  A
C178       Br179   1.922       .  S
C183        C184   1.401       .  A
C183        C188   1.398       .  A
C183        H190   1.084       .  S
C184        C185   1.411       .  A
C185        C186   1.396       .  A
C185       Br192   1.921       .  S
C186        C187   1.404       .  A
C186        H191   1.083       .  S
C187        C188   1.417       .  A
C188       Br189   1.919       .  S
C193        C194   1.405       .  A
C193        C198   1.394       .  A
C193        H200   1.083       .  S
C194        C195   1.408       .  A
C195        C196   1.398       .  A
C195       Br202   1.918       .  S
C196        C197   1.402       .  A
C196        H201   1.084       .  S
C197        C198   1.406       .  A
C198       Br199   1.921       .  S
C203        C204   1.406       .  A
C203        C208   1.397       .  A
C203        H210   1.083       .  S
C204        C205   1.412       .  A
C205        C206   1.402       .  A
C205       Br212   1.921       .  S
C206        C207   1.405       .  A
C206        H211   1.083       .  S
C207        C208   1.411       .  A
C208       Br209   1.922       .  S
C213        C214   1.404       .  A
C213        C218   1.395       .  A
C213        H220   1.084       .  S
C214        C215   1.409       .  A
C215        C216   1.404       .  A
C215       Br222   1.917       .  S
C216        C217   1.405       .  A
C216        H221   1.084       .  S
C217        C218   1.411       .  A
C218       Br219   1.922       .  S
C223        C224   1.407       .  A
C223        C228   1.403       .  A
C223        H230   1.083       .  S
C224        C225   1.411       .  A
C225        C226   1.393       .  A
C225       Br232   1.921       .  S
C226        C227   1.400       .  A
C226        H231   1.084       .  S
C227        C228   1.407       .  A
C228       Br229   1.918       .  S
C233        C234   1.404       .  A
C233        C238   1.392       .  A
C233        H240   1.083       .  S
C234        C235   1.409       .  A
C234        C263   1.472       .  S
C235        C236   1.395       .  A
C235       Br242   1.921       .  S
C236        C237   1.402       .  A
C236        H241   1.084       .  S
C237        C238   1.406       .  A
C238       Br239   1.921       .  S
C243        C244   1.406       .  A
C243        C248   1.394       .  A
C243        H250   1.081       .  S
C244        C245   1.419       .  A
C245        C246   1.396       .  A
C245       Br252   1.923       .  S
C246        C247   1.398       .  A
C246        H513   1.083       .  S
C247        C248   1.406       .  A
C247        C267   1.469       .  S
C248       Br249   1.920       .  S
H251        C508   1.083   1_554  S
C253        C254   1.402       .  A
C253        C258   1.395       .  A
C253        H260   1.084       .  S
C254        C255   1.413       .  A
C255        C518   1.397       .  A
C255       Br524   1.919       .  S
C256        C517   1.397       .  A
C256        C519   1.402       .  A
C256        H261   1.084       .  S
C257        C258   1.413       .  A
C257        C518   1.402       .  A
C257        C265   1.479       .  S
C258       Br259   1.922       .  S
Br262       C517   1.919       .  S
C263        C264   1.402       .  A
C263        C268   1.400       .  A
C264        C265   1.401       .  A
C264        H269   1.084       .  S
C265        C266   1.403       .  A
C266        C267   1.401       .  A
C266        H270   1.084       .  S
C267        C268   1.397       .  A
C268        H271   1.084       .  S
C272        C273   1.408       .  A
C272        C277   1.409       .  A
C272        C466   1.488       .  S
C273        C274   1.402       .  A
C273        H278   1.083       .  S
C274        C275   1.400       .  A
C274        C489   1.474       .  S
C275        C276   1.400       .  A
C275        H279   1.085       .  S
C276        C277   1.403       .  A
C276        C476   1.483       .  S
C277        H280   1.084       .  S
C281        C282   1.400       .  A
C281        C286   1.404       .  A
C281        C456   1.475       .  S
C282        C283   1.399       .  A
C282        H287   1.084       .  S
C283        C284   1.403       .  A
C283        C446   1.479       .  S
C284        C285   1.404       .  A
C284        H288   1.084       .  S
C285        C286   1.404       .  A
C285        C439   1.483       .  S
C286        H289   1.084       .  S
C290        C291   1.402       .  A
C290        C295   1.403       .  A
C290        C429   1.475       .  S
C291        C292   1.397       .  A
C291        H296   1.084       .  S
C292        C293   1.399       .  A
C292        C409   1.469       .  S
C293        C294   1.400       .  A
C293        H297   1.085       .  S
C294        C295   1.399       .  A
C294        C416   1.470       .  S
C295        H298   1.084       .  S
C299        C336   1.456       .  S
C299        C459   1.462       .  S
C299        N317   1.346       .  A
N300        N317   1.322       .  A
N300        N322   1.320       .  A
N300      Co1385   2.073   1_455  S
C301        C339   1.469       .  S
C301        H346   1.079       .  S
C301        N326   1.341       .  A
H302        C343   1.080       .  S
C303        C307   1.454       .  S
C303        H332   1.082       .  S
Co304       N846   2.077   1_545  S
Co304       N312   2.084       .  S
Co304       N344   2.085       .  S
Co304       N320   2.079       .  S
Co304     Cl1396   2.441   1_455  S
N305        C343   1.339       .  A
N305        N312   1.318       .  A
N305       Co306   2.071       .  S
Co306       N309   2.091       .  S
Co306       N326   2.092       .  S
Co306      N1361   2.071   1_455  S
Co306     Cl1396   2.452   1_455  S
C307        C402   1.464       .  S
C307       N1917   1.353       .  A
N308        N315   1.317       .  A
N308        N338   1.320       .  A
N308       Co341   2.066       .  S
N309       N1899   1.319   1_445  A
N310        C339   1.352       .  A
N310        N320   1.323       .  A
H311        C336   1.081       .  S
N312        N333   1.322       .  A
N313        N331   1.320       .  A
N313        N318   1.321       .  A
N313      Co1354   2.071       .  S
C314        C342   1.456       .  S
C314        C499   1.461       .  S
C314        N318   1.346       .  A
N315        C330   1.339       .  A
N315       Co337   2.086       .  S
C316       C1367   1.460   1_455  S
C316        H350   1.082       .  S
C316        N344   1.339       .  A
C319       C1364   1.460       .  S
C319        C392   1.466       .  S
C319        N864   1.350   1_545  A
N320        N326   1.318       .  A
N321        C347   1.338       .  A
N321        N323   1.317       .  A
N321       Co337   2.073       .  S
N322        C336   1.340       .  A
N322       Co828   2.077       .  S
N323        N351   1.323       .  A
N323       Co341   2.083       .  S
H324        C347   1.079       .  S
H325        C342   1.081   1_565  S
N327       N1881   1.319       .  A
N327       Co341   2.073       .  S
N328        N340   1.325       .  A
N328       N1916   1.319       .  A
N328       Co337   2.080       .  S
C329        C343   1.461       .  S
C329        C516   1.476       .  S
C329        N333   1.350       .  A
C330        C349   1.469       .  S
C330        H334   1.081       .  S
N331        C342   1.338       .  A
N331       Co865   2.074   1_545  S
C335        C347   1.462       .  S
C335        C449   1.481       .  S
C335        N351   1.352       .  A
Co337      N1348   2.073       .  S
Co337      Cl872   2.447       .  S
N338        C349   1.347       .  A
C339        C436   1.488       .  S
N340        C843   1.350       .  A
Co341       N855   2.074       .  S
Co341      Cl872   2.443       .  S
N344       N1900   1.319   1_445  A
N345       C1879   1.353   1_545  A
Cl348     Co1352   2.441       .  S
Cl348     Co1354   2.452       .  S
Cl348      Co861   2.447   1_545  S
Cl348      Co865   2.443   1_545  S
C349        C506   1.483       .  S
C352        C389   1.460       .  S
C352        C486   1.474       .  S
C352        N370   1.350       .  A
N353        N370   1.325       .  A
N353        N375   1.319       .  A
N353       Co390   2.083       .  S
C354        C916   1.462       .  S
C354        H399   1.082       .  S
C354        N379   1.342       .  A
H355        C396   1.082   1_655  S
C356        C360   1.460       .  S
C356        H385   1.082       .  S
C356        N380   1.343       .  A
Co357       N375   2.080       .  S
Co357       N889   2.079   1_545  S
Co357       N397   2.077       .  S
Co357       N373   2.076       .  S
Co357     Cl1449   2.449   1_455  S
N358        C396   1.337       .  A
N358        N365   1.320       .  A
N358      Co1407   2.072   1_455  S
Co359      N1406   2.072       .  S
Co359       N362   2.089       .  S
Co359       N379   2.090       .  S
Co359       N366   2.070       .  S
Co359      Cl925   2.446       .  S
C360        C479   1.478       .  S
C360        N398   1.350       .  A
N361       N1940   1.319       .  A
N361        N391   1.323       .  A
N361       Co394   2.089       .  S
N362        N380   1.320       .  A
N362        N398   1.324       .  A
N363       C1440   1.348   1_455  A
N363        N373   1.323       .  A
H364        C389   1.081       .  S
N365        N386   1.323       .  A
N365       Co881   2.079       .  S
N366        N384   1.318       .  A
N366        N371   1.320       .  A
C367        C395   1.467       .  S
C367        C419   1.483       .  S
C367        N371   1.347       .  A
N368        C383   1.340       .  A
N368       N1933   1.320   1_445  A
N368       Co390   2.074       .  S
C369        C372   1.463       .  S
C369        H403   1.081       .  S
C369        N397   1.342       .  A
C372        C406   1.474       .  S
C372        N393   1.349       .  A
N373       N1951   1.319   1_445  A
N374        C400   1.339       .  A
N374        N376   1.319       .  A
N374      Co1438   2.077       .  S
N375        C389   1.339       .  A
N376        N404   1.326       .  A
N376       Co918   2.088   1_545  S
H377        C400   1.081       .  S
H378        C395   1.081       .  S
N379       N1945   1.319       .  A
N380       Co394   2.086       .  S
N381        N393   1.320       .  A
N381        N397   1.317       .  A
N381       Co390   2.076       .  S
C382        C396   1.456       .  S
C382        C426   1.466       .  S
C382        N386   1.348       .  A
C383       C1974   1.457   1_545  S
C383        H387   1.082       .  S
N384        C395   1.339       .  A
N384       Co394   2.083       .  S
C388        C400   1.460       .  S
C388        C469   1.478       .  S
C388        N404   1.351       .  A
Co390      N1422   2.077   1_455  S
Co390     Cl1449   2.445   1_455  S
N391        C402   1.351       .  A
C392        C878   1.462   1_545  S
C392       N1411   1.348       .  A
Co394       N900   2.088       .  S
Co394      Cl925   2.448       .  S
Cl401     Co1405   2.449       .  S
Cl401      Co883   2.446   1_545  S
Cl401     Co1438   2.445       .  S
Cl401      Co918   2.448   1_545  S
C402       C1955   1.457       .  S
C405        C406   1.404       .  A
C405        C410   1.390       .  A
C405        H412   1.083       .  S
C406        C407   1.412       .  A
C407        C408   1.401       .  A
C407       Br414   1.918       .  S
C408        C409   1.402       .  A
C408        H413   1.084       .  S
C409        C410   1.406       .  A
C410       Br411   1.922       .  S
C415        C416   1.398       .  A
C415        C420   1.396       .  A
C415        H422   1.084       .  S
C416        C417   1.406       .  A
C417        C418   1.395       .  A
C417       Br424   1.921       .  S
C418        C419   1.407       .  A
C418        H423   1.081       .  S
C419        C420   1.419       .  A
C420       Br421   1.923       .  S
C425        C426   1.399       .  A
C425        C430   1.393       .  A
C425        H432   1.084       .  S
C426        C427   1.408       .  A
C427        C428   1.396       .  A
C427       Br434   1.920       .  S
C428        C429   1.404       .  A
C428        H433   1.084       .  S
C429        C430   1.413       .  A
C430       Br431   1.923       .  S
C435        C436   1.408       .  A
C435        C440   1.398       .  A
C435        H442   1.083       .  S
C436        C437   1.415       .  A
C437        C438   1.400       .  A
C437       Br444   1.919       .  S
C438        C439   1.404       .  A
C438        H443   1.084       .  S
C439        C440   1.408       .  A
C440       Br441   1.922       .  S
C445        C446   1.401       .  A
C445        C450   1.398       .  A
C445        H452   1.084       .  S
C446        C447   1.411       .  A
C447        C448   1.396       .  A
C447       Br454   1.921       .  S
C448        C449   1.404       .  A
C448        H453   1.083       .  S
C449        C450   1.417       .  A
C450       Br451   1.919       .  S
C455        C456   1.405       .  A
C455        C460   1.394       .  A
C455        H462   1.083       .  S
C456        C457   1.408       .  A
C457        C458   1.398       .  A
C457       Br464   1.918       .  S
C458        C459   1.402       .  A
C458        H463   1.084       .  S
C459        C460   1.406       .  A
C460       Br461   1.921       .  S
C465        C466   1.406       .  A
C465        C470   1.397       .  A
C465        H472   1.083       .  S
C466        C467   1.412       .  A
C467        C468   1.402       .  A
C467       Br474   1.921       .  S
C468        C469   1.405       .  A
C468        H473   1.083       .  S
C469        C470   1.411       .  A
C470       Br471   1.922       .  S
C475        C476   1.404       .  A
C475        C480   1.395       .  A
C475        H482   1.084       .  S
C476        C477   1.409       .  A
C477        C478   1.404       .  A
C477       Br484   1.917       .  S
C478        C479   1.405       .  A
C478        H483   1.084       .  S
C479        C480   1.411       .  A
C480       Br481   1.922       .  S
C485        C486   1.407       .  A
C485        C490   1.403       .  A
C485        H492   1.083       .  S
C486        C487   1.411       .  A
C487        C488   1.393       .  A
C487       Br494   1.921       .  S
C488        C489   1.400       .  A
C488        H493   1.084       .  S
C489        C490   1.407       .  A
C490       Br491   1.918       .  S
C495        C496   1.404       .  A
C495        C500   1.392       .  A
C495        H502   1.083       .  S
C496        C497   1.409       .  A
C497        C498   1.395       .  A
C497       Br504   1.921   1_556  S
C498        C499   1.402       .  A
C498        H503   1.084   1_556  S
C499        C500   1.406       .  A
C500       Br501   1.921       .  S
C505        C506   1.406       .  A
C505        C510   1.394       .  A
C505        H512   1.081       .  S
C506        C507   1.419       .  A
C507        C508   1.396       .  A
C507       Br514   1.923   1_556  S
C508        C509   1.398       .  A
C509        C510   1.406       .  A
C510       Br511   1.920       .  S
C515        C516   1.402       .  A
C515        C520   1.395       .  A
C515        H522   1.084       .  S
C516        C517   1.413       .  A
C518        H523   1.084       .  S
C519        C520   1.413       .  A
C520       Br521   1.922       .  S
C525        C526   1.402       .  A
C525        C530   1.400       .  A
C525       C1020   1.472       .  S
C526        C527   1.401       .  A
C526        H531   1.084       .  S
C527        C528   1.403       .  A
C527       C1043   1.479       .  S
C528        C529   1.401       .  A
C528        H532   1.084       .  S
C529        C530   1.397       .  A
C529       C1033   1.469       .  S
C530        H533   1.084       .  S
C534        C535   1.408       .  A
C534        C539   1.409       .  A
C534        C728   1.488       .  S
C535        C536   1.402       .  A
C535        H540   1.083       .  S
C536        C537   1.400       .  A
C536        C751   1.474       .  S
C537        C538   1.400       .  A
C537        H541   1.085       .  S
C538        C539   1.403       .  A
C538        C738   1.483       .  S
C539        H542   1.084       .  S
C543        C544   1.400       .  A
C543        C548   1.404       .  A
C543        C718   1.475       .  S
C544        C545   1.399       .  A
C544        H549   1.084       .  S
C545        C546   1.403       .  A
C545        C708   1.479       .  S
C546        C547   1.404       .  A
C546        H550   1.084       .  S
C547        C548   1.404       .  A
C547        C701   1.483       .  S
C548        H551   1.084       .  S
C552        C553   1.402       .  A
C552        C557   1.403       .  A
C552        C691   1.475       .  S
C553        C554   1.397       .  A
C553        H558   1.084       .  S
C554        C555   1.399       .  A
C554        C671   1.469       .  S
C555        C556   1.400       .  A
C555        H559   1.085       .  S
C556        C557   1.399       .  A
C556        C678   1.470       .  S
C557        H560   1.084       .  S
C561        C598   1.456       .  S
C561        C721   1.462       .  S
C561        N579   1.346       .  A
N562        N579   1.322       .  A
N562        N584   1.320       .  A
N562      Co1647   2.073   1_455  S
C563        C601   1.469       .  S
C563        H608   1.079       .  S
C563        N588   1.341       .  A
H564        C605   1.080       .  S
C565        C569   1.454       .  S
C565        H594   1.082       .  S
C565        N851   1.337   1_554  A
Co566       N574   2.084       .  S
Co566       N606   2.085       .  S
Co566       N582   2.079       .  S
Co566     Cl1658   2.441   1_455  S
N567        C605   1.339       .  A
N567        N574   1.318       .  A
N567       Co568   2.071       .  S
Co568       N571   2.091       .  S
Co568       N588   2.092       .  S
Co568      N1623   2.071   1_455  S
Co568     Cl1658   2.452   1_455  S
C569        C664   1.464       .  S
C569       N1131   1.353   1_565  A
N570        N577   1.317       .  A
N570        N600   1.320       .  A
N570       Co603   2.066       .  S
N571       N1113   1.319   1_455  A
N571        N869   1.326       .  A
N572        C601   1.352       .  A
N572        N582   1.323       .  A
H573        C598   1.081   1_545  S
N574        N595   1.322       .  A
N575        N593   1.320       .  A
N575        N580   1.321       .  A
N575      Co1616   2.071       .  S
C576        C604   1.456       .  S
C576        C761   1.461       .  S
C576        N580   1.346       .  A
N577        C592   1.339       .  A
N577       Co599   2.086       .  S
C578       C1629   1.460   1_455  S
C578        H612   1.082       .  S
C578        N606   1.339       .  A
C581       C1626   1.460       .  S
C581        C654   1.466       .  S
N582        N588   1.318       .  A
N583        C609   1.338       .  A
N583        N585   1.317       .  A
N583       Co599   2.073       .  S
N584        C598   1.340       .  A
N585        N613   1.323       .  A
N585       Co603   2.083       .  S
H586        C609   1.079       .  S
H587        C604   1.081       .  S
N589        C827   1.337       .  A
N589       N1095   1.319   1_565  A
N589       Co603   2.073       .  S
N590        N602   1.325       .  A
N590       N1130   1.319   1_565  A
N590       Co599   2.080       .  S
C591        C605   1.461       .  S
C591        C778   1.476       .  S
C591        N595   1.350       .  A
C592        C611   1.469       .  S
C592        H596   1.081       .  S
N593        C604   1.338       .  A
C597        C609   1.462       .  S
C597        C711   1.481       .  S
C597        N613   1.352       .  A
Co599      N1610   2.073       .  S
N600        C611   1.347       .  A
C601        C698   1.488       .  S
N606       N1114   1.319   1_455  A
N607       C1093   1.353       .  A
N607        N833   1.326   1_554  A
Cl610     Co1614   2.441       .  S
Cl610     Co1616   2.452       .  S
C611        C768   1.483       .  S
C614        C651   1.460       .  S
C614        C748   1.474       .  S
C614        N632   1.350       .  A
N615        N632   1.325       .  A
N615        N637   1.319       .  A
N615       Co652   2.083       .  S
C616        H661   1.082       .  S
C616        N641   1.342       .  A
H617        C658   1.082   1_655  S
C618        C622   1.460       .  S
C618        H647   1.082       .  S
C618        N642   1.343       .  A
Co619       N637   2.080       .  S
Co619       N659   2.077       .  S
Co619       N635   2.076       .  S
Co619     Cl1711   2.449   1_455  S
N620        C658   1.337       .  A
N620        N627   1.320       .  A
N620      Co1669   2.072   1_455  S
Co621      N1668   2.072       .  S
Co621       N624   2.089       .  S
Co621       N641   2.090       .  S
Co621       N628   2.070       .  S
C622        C741   1.478       .  S
C622        N660   1.350       .  A
N623       N1154   1.319   1_565  A
N623        N653   1.323       .  A
N623       Co656   2.089       .  S
N624        N642   1.320       .  A
N624        N660   1.324       .  A
N625       C1702   1.348   1_455  A
N625        N635   1.323       .  A
H626        C651   1.081       .  S
N627        N648   1.323       .  A
N628        N646   1.318       .  A
N628        N633   1.320       .  A
C629        C657   1.467       .  S
C629        C681   1.483       .  S
C629        N633   1.347       .  A
N630        C645   1.340       .  A
N630       N1147   1.319   1_455  A
N630       Co652   2.074       .  S
C631        C634   1.463       .  S
C631        H665   1.081       .  S
C631        N659   1.342       .  A
C634        C668   1.474       .  S
C634        N655   1.349       .  A
N635       N1165   1.319   1_455  A
N636        C662   1.339       .  A
N636        N638   1.319       .  A
N636      Co1700   2.077       .  S
N637        C651   1.339       .  A
N638        N666   1.326       .  A
H639        C662   1.081       .  S
H640        C657   1.081       .  S
N641       N1159   1.319   1_565  A
N642       Co656   2.086       .  S
N643        N655   1.320       .  A
N643        N659   1.317       .  A
N643       Co652   2.076       .  S
C644        C658   1.456       .  S
C644        C688   1.466       .  S
C644        N648   1.348       .  A
C645       C1188   1.457       .  S
C645        H649   1.082       .  S
N646        C657   1.339       .  A
N646       Co656   2.083       .  S
C650        C662   1.460       .  S
C650        C731   1.478       .  S
C650        N666   1.351       .  A
Co652      N1684   2.077   1_455  S
Co652     Cl1711   2.445   1_455  S
N653        C664   1.351       .  A
C654       N1673   1.348       .  A
Cl663     Co1667   2.449       .  S
Cl663     Co1700   2.445       .  S
C664       C1169   1.457   1_565  S
C667        C668   1.404       .  A
C667        C672   1.390       .  A
C667        H674   1.083       .  S
C668        C669   1.412       .  A
C669        C670   1.401       .  A
C669       Br676   1.918       .  S
C670        C671   1.402       .  A
C670        H675   1.084       .  S
C671        C672   1.406       .  A
C672       Br673   1.922       .  S
C677        C678   1.398       .  A
C677        C682   1.396       .  A
C677        H684   1.084       .  S
C678        C679   1.406       .  A
C679        C680   1.395       .  A
C679       Br686   1.921       .  S
C680        C681   1.407       .  A
C680        H685   1.081       .  S
C681        C682   1.419       .  A
C682       Br683   1.923       .  S
C687        C688   1.399       .  A
C687        C692   1.393       .  A
C687        H694   1.084       .  S
C688        C689   1.408       .  A
C689        C690   1.396       .  A
C689       Br696   1.920       .  S
C690        C691   1.404       .  A
C690        H695   1.084       .  S
C691        C692   1.413       .  A
C692       Br693   1.923       .  S
C697        C698   1.408       .  A
C697        C702   1.398       .  A
C697        H704   1.083       .  S
C698        C699   1.415       .  A
C699        C700   1.400       .  A
C699       Br706   1.919       .  S
C700        C701   1.404       .  A
C700        H705   1.084       .  S
C701        C702   1.408       .  A
C702       Br703   1.922       .  S
C707        C708   1.401       .  A
C707        C712   1.398       .  A
C707        H714   1.084       .  S
C708        C709   1.411       .  A
C709        C710   1.396       .  A
C709       Br716   1.921       .  S
C710        C711   1.404       .  A
C710        H715   1.083       .  S
C711        C712   1.417       .  A
C712       Br713   1.919       .  S
C717        C718   1.405       .  A
C717        C722   1.394       .  A
C717        H724   1.083       .  S
C718        C719   1.408       .  A
C719        C720   1.398       .  A
C719       Br726   1.918       .  S
C720        C721   1.402       .  A
C720        H725   1.084       .  S
C721        C722   1.406       .  A
C722       Br723   1.921       .  S
C727        C728   1.406       .  A
C727        C732   1.397       .  A
C727        H734   1.083       .  S
C728        C729   1.412       .  A
C729        C730   1.402       .  A
C729       Br736   1.921       .  S
C730        C731   1.405       .  A
C730        H735   1.083       .  S
C731        C732   1.411       .  A
C732       Br733   1.922       .  S
C737        C738   1.404       .  A
C737        C742   1.395       .  A
C737        H744   1.084       .  S
C738        C739   1.409       .  A
C739        C740   1.404       .  A
C739       Br746   1.917       .  S
C740        C741   1.405       .  A
C740        H745   1.084       .  S
C741        C742   1.411       .  A
C742       Br743   1.922       .  S
C747        C748   1.407       .  A
C747        C752   1.403       .  A
C747        H754   1.083       .  S
C748        C749   1.411       .  A
C749        C750   1.393       .  A
C749       Br756   1.921       .  S
C750        C751   1.400       .  A
C750        H755   1.084       .  S
C751        C752   1.407       .  A
C752       Br753   1.918       .  S
C757        C758   1.404       .  A
C757        C762   1.392       .  A
C757        H764   1.083       .  S
C758        C759   1.409       .  A
C758        C787   1.472       .  S
C759        C760   1.395       .  A
C759       Br766   1.921       .  S
C760        C761   1.402       .  A
C760        H765   1.084       .  S
C761        C762   1.406       .  A
C762       Br763   1.921       .  S
C767        C768   1.406       .  A
C767        C772   1.394       .  A
C767        H774   1.081       .  S
C768        C769   1.419       .  A
C769        C770   1.396       .  A
C769       Br776   1.923       .  S
C770        C771   1.398       .  A
C770       H1037   1.083       .  S
C771        C772   1.406       .  A
C771        C791   1.469       .  S
C772       Br773   1.920       .  S
H775       C1032   1.083   1_554  S
C777        C778   1.402       .  A
C777        C782   1.395       .  A
C777        H784   1.084       .  S
C778        C779   1.413       .  A
C779       C1042   1.397       .  A
C779      Br1048   1.919       .  S
C780       C1041   1.397       .  A
C780       C1043   1.402       .  A
C780        H785   1.084       .  S
C781       C1042   1.402       .  A
C781        C782   1.413       .  A
C781        C789   1.479       .  S
C782       Br783   1.922       .  S
Br786      C1041   1.919       .  S
C787        C788   1.402       .  A
C787        C792   1.400       .  A
C788        C789   1.401       .  A
C788        H793   1.084       .  S
C789        C790   1.403       .  A
C790        C791   1.401       .  A
C790        H794   1.084       .  S
C791        C792   1.397       .  A
C792        H795   1.084       .  S
C796        C797   1.408       .  A
C796        C801   1.409       .  A
C796        C990   1.488       .  S
C797        C798   1.402       .  A
C797        H802   1.083       .  S
C798        C799   1.400       .  A
C798       C1013   1.474       .  S
C799        C800   1.400       .  A
C799        H803   1.085       .  S
C800        C801   1.403       .  A
C800       C1000   1.483       .  S
C801        H804   1.084       .  S
C805        C806   1.400       .  A
C805        C810   1.404       .  A
C805        C980   1.475       .  S
C806        C807   1.399       .  A
C806        H811   1.084       .  S
C807        C808   1.403       .  A
C807        C970   1.479       .  S
C808        C809   1.404       .  A
C808        H812   1.084       .  S
C809        C810   1.404       .  A
C809        C963   1.483       .  S
C810        H813   1.084       .  S
C814        C815   1.402       .  A
C814        C819   1.403       .  A
C814        C953   1.475       .  S
C815        C816   1.397       .  A
C815        H820   1.084       .  S
C816        C817   1.399       .  A
C816        C933   1.469       .  S
C817        C818   1.400       .  A
C817        H821   1.085       .  S
C818        C819   1.399       .  A
C818        C940   1.470       .  S
C819        H822   1.084       .  S
C823        C860   1.456       .  S
C823        C983   1.462       .  S
C823        N841   1.346       .  A
N824        N841   1.322       .  A
N824        N846   1.320       .  A
N824      Co1909   2.073   1_455  S
C825        C863   1.469       .  S
C825        H870   1.079       .  S
C825        N850   1.341       .  A
H826        C867   1.080       .  S
C827        C831   1.454       .  S
C827        H856   1.082       .  S
Co828       N836   2.084       .  S
Co828       N868   2.085       .  S
Co828       N844   2.079       .  S
Co828     Cl1920   2.441   1_455  S
N829        C867   1.339       .  A
N829        N836   1.318       .  A
N829       Co830   2.071       .  S
Co830       N833   2.091       .  S
Co830       N850   2.092       .  S
Co830      N1885   2.071   1_455  S
Co830     Cl1920   2.452   1_455  S
C831        C926   1.464       .  S
C831       N1393   1.353   1_565  A
N832        N839   1.317       .  A
N832        N862   1.320       .  A
N832       Co865   2.066       .  S
N833       N1375   1.319   1_455  A
N834        C863   1.352       .  A
N834        N844   1.323       .  A
H835        C860   1.081   1_545  S
N836        N857   1.322       .  A
N837        N855   1.320       .  A
N837        N842   1.321       .  A
N837      Co1878   2.071       .  S
C838        C866   1.456       .  S
C838       C1023   1.461       .  S
C838        N842   1.346       .  A
N839        C854   1.339       .  A
N839       Co861   2.086       .  S
C840       C1891   1.460   1_455  S
C840        H874   1.082       .  S
C840        N868   1.339       .  A
C843       C1888   1.460       .  S
C843        C916   1.466       .  S
N844        N850   1.318       .  A
N845        C871   1.338       .  A
N845        N847   1.317       .  A
N845       Co861   2.073       .  S
N846        C860   1.340       .  A
N847        N875   1.323       .  A
N847       Co865   2.083       .  S
H848        C871   1.079       .  S
H849        C866   1.081       .  S
N851       N1357   1.319   1_565  A
N851       Co865   2.073       .  S
N852        N864   1.325       .  A
N852       N1392   1.319   1_565  A
N852       Co861   2.080       .  S
C853        C867   1.461       .  S
C853       C1040   1.476       .  S
C853        N857   1.350       .  A
C854        C873   1.469       .  S
C854        H858   1.081       .  S
N855        C866   1.338       .  A
C859        C871   1.462       .  S
C859        C973   1.481       .  S
C859        N875   1.352       .  A
Co861      N1872   2.073       .  S
N862        C873   1.347       .  A
C863        C960   1.488       .  S
N868       N1376   1.319   1_455  A
N869       C1355   1.353       .  A
Cl872     Co1876   2.441       .  S
Cl872     Co1878   2.452       .  S
C873       C1030   1.483       .  S
C876        C913   1.460       .  S
C876       C1010   1.474       .  S
C876        N894   1.350       .  A
N877        N894   1.325       .  A
N877        N899   1.319       .  A
N877       Co914   2.083       .  S
C878        H923   1.082       .  S
C878        N903   1.342       .  A
H879        C920   1.082   1_655  S
C880        C884   1.460       .  S
C880        H909   1.082       .  S
C880        N904   1.343       .  A
Co881       N899   2.080       .  S
Co881       N921   2.077       .  S
Co881       N897   2.076       .  S
Co881     Cl1973   2.449   1_455  S
N882        C920   1.337       .  A
N882        N889   1.320       .  A
N882      Co1931   2.072   1_455  S
Co883      N1930   2.072       .  S
Co883       N886   2.089       .  S
Co883       N903   2.090       .  S
Co883       N890   2.070       .  S
C884       C1003   1.478       .  S
C884        N922   1.350       .  A
N885       N1416   1.320   1_565  A
N885        N915   1.323       .  A
N885       Co918   2.089       .  S
N886        N904   1.320       .  A
N886        N922   1.324       .  A
N887       C1964   1.348   1_455  A
N887        N897   1.323       .  A
H888        C913   1.081       .  S
N889        N910   1.323       .  A
N890        N908   1.318       .  A
N890        N895   1.320       .  A
C891        C919   1.467       .  S
C891        C943   1.483       .  S
C891        N895   1.347       .  A
N892        C907   1.340       .  A
N892       N1409   1.319   1_455  A
N892       Co914   2.074       .  S
C893        C896   1.463       .  S
C893        H927   1.081       .  S
C893        N921   1.342       .  A
C896        C930   1.474       .  S
C896        N917   1.349       .  A
N897       N1427   1.319   1_455  A
N898        C924   1.339       .  A
N898        N900   1.319       .  A
N898      Co1962   2.077       .  S
N899        C913   1.339       .  A
N900        N928   1.326       .  A
H901        C924   1.081       .  S
H902        C919   1.081       .  S
N903       N1421   1.319   1_565  A
N904       Co918   2.086       .  S
N905        N917   1.320       .  A
N905        N921   1.317       .  A
N905       Co914   2.076       .  S
C906        C920   1.456       .  S
C906        C950   1.466       .  S
C906        N910   1.348       .  A
C907       C1450   1.457       .  S
C907        H911   1.082       .  S
N908        C919   1.339       .  A
N908       Co918   2.083       .  S
C912        C924   1.460       .  S
C912        C993   1.478       .  S
C912        N928   1.351       .  A
Co914      N1946   2.077   1_455  S
Co914     Cl1973   2.445   1_455  S
N915        C926   1.351       .  A
C916       N1935   1.348       .  A
Cl925     Co1929   2.449       .  S
Cl925     Co1962   2.445       .  S
C926       C1431   1.457   1_565  S
C929        C930   1.404       .  A
C929        C934   1.390       .  A
C929        H936   1.083       .  S
C930        C931   1.412       .  A
C931        C932   1.401       .  A
C931       Br938   1.918       .  S
C932        C933   1.402       .  A
C932        H937   1.084       .  S
C933        C934   1.406       .  A
C934       Br935   1.922       .  S
C939        C940   1.398       .  A
C939        C944   1.396       .  A
C939        H946   1.084       .  S
C940        C941   1.406       .  A
C941        C942   1.395       .  A
C941       Br948   1.921       .  S
C942        C943   1.407       .  A
C942        H947   1.081       .  S
C943        C944   1.419       .  A
C944       Br945   1.923       .  S
C949        C950   1.399       .  A
C949        C954   1.393       .  A
C949        H956   1.084       .  S
C950        C951   1.408       .  A
C951        C952   1.396       .  A
C951       Br958   1.920       .  S
C952        C953   1.404       .  A
C952        H957   1.084       .  S
C953        C954   1.413       .  A
C954       Br955   1.923       .  S
C959        C960   1.408       .  A
C959        C964   1.398       .  A
C959        H966   1.083       .  S
C960        C961   1.415       .  A
C961        C962   1.400       .  A
C961       Br968   1.919       .  S
C962        C963   1.404       .  A
C962        H967   1.084       .  S
C963        C964   1.408       .  A
C964       Br965   1.922       .  S
C969        C970   1.401       .  A
C969        C974   1.398       .  A
C969        H976   1.084       .  S
C970        C971   1.411       .  A
C971        C972   1.396       .  A
C971       Br978   1.921       .  S
C972        C973   1.404       .  A
C972        H977   1.083       .  S
C973        C974   1.417       .  A
C974       Br975   1.919       .  S
C979        C980   1.405       .  A
C979        C984   1.394       .  A
C979        H986   1.083       .  S
C980        C981   1.408       .  A
C981        C982   1.398       .  A
C981       Br988   1.918       .  S
C982        C983   1.402       .  A
C982        H987   1.084       .  S
C983        C984   1.406       .  A
C984       Br985   1.921       .  S
C989        C990   1.406       .  A
C989        C994   1.397       .  A
C989        H996   1.083       .  S
C990        C991   1.412       .  A
C991        C992   1.402       .  A
C991       Br998   1.921       .  S
C992        C993   1.405       .  A
C992        H997   1.083       .  S
C993        C994   1.411       .  A
C994       Br995   1.922       .  S
C999       C1000   1.404       .  A
C999       C1004   1.395       .  A
C999       H1006   1.084       .  S
C1000      C1001   1.409       .  A
C1001      C1002   1.404       .  A
C1001     Br1008   1.917       .  S
C1002      C1003   1.405       .  A
C1002      H1007   1.084       .  S
C1003      C1004   1.411       .  A
C1004     Br1005   1.922       .  S
C1009      C1010   1.407       .  A
C1009      C1014   1.403       .  A
C1009      H1016   1.083       .  S
C1010      C1011   1.411       .  A
C1011      C1012   1.393       .  A
C1011     Br1018   1.921       .  S
C1012      C1013   1.400       .  A
C1012      H1017   1.084       .  S
C1013      C1014   1.407       .  A
C1014     Br1015   1.918       .  S
C1019      C1020   1.404       .  A
C1019      C1024   1.392       .  A
C1019      H1026   1.083       .  S
C1020      C1021   1.409       .  A
C1021      C1022   1.395       .  A
C1021     Br1028   1.921   1_556  S
C1022      C1023   1.402       .  A
C1022      H1027   1.084   1_556  S
C1023      C1024   1.406       .  A
C1024     Br1025   1.921       .  S
C1029      C1030   1.406       .  A
C1029      C1034   1.394       .  A
C1029      H1036   1.081       .  S
C1030      C1031   1.419       .  A
C1031      C1032   1.396       .  A
C1031     Br1038   1.923   1_556  S
C1032      C1033   1.398       .  A
C1033      C1034   1.406       .  A
C1034     Br1035   1.920       .  S
C1039      C1040   1.402       .  A
C1039      C1044   1.395       .  A
C1039      H1046   1.084       .  S
C1040      C1041   1.413       .  A
C1042      H1047   1.084       .  S
C1043      C1044   1.413       .  A
C1044     Br1045   1.922       .  S
C1049      C1050   1.402       .  A
C1049      C1054   1.400       .  A
C1049      C1544   1.472       .  S
C1050      C1051   1.401       .  A
C1050      H1055   1.084       .  S
C1051      C1052   1.403       .  A
C1051      C1567   1.479       .  S
C1052      C1053   1.401       .  A
C1052      H1056   1.084       .  S
C1053      C1054   1.397       .  A
C1053      C1557   1.469       .  S
C1054      H1057   1.084       .  S
C1058      C1059   1.408       .  A
C1058      C1063   1.409       .  A
C1058      C1252   1.488       .  S
C1059      C1060   1.402       .  A
C1059      H1064   1.083       .  S
C1060      C1061   1.400       .  A
C1060      C1275   1.474       .  S
C1061      C1062   1.400       .  A
C1061      H1065   1.085       .  S
C1062      C1063   1.403       .  A
C1062      C1262   1.483       .  S
C1063      H1066   1.084       .  S
C1067      C1068   1.400       .  A
C1067      C1072   1.404       .  A
C1067      C1242   1.475       .  S
C1068      C1069   1.399       .  A
C1068      H1073   1.084       .  S
C1069      C1070   1.403       .  A
C1069      C1232   1.479       .  S
C1070      C1071   1.404       .  A
C1070      H1074   1.084       .  S
C1071      C1072   1.404       .  A
C1071      C1225   1.483       .  S
C1072      H1075   1.084       .  S
C1076      C1077   1.402       .  A
C1076      C1081   1.403       .  A
C1076      C1215   1.475       .  S
C1077      C1078   1.397       .  A
C1077      H1082   1.084       .  S
C1078      C1079   1.399       .  A
C1078      C1195   1.469       .  S
C1079      C1080   1.400       .  A
C1079      H1083   1.085       .  S
C1080      C1081   1.399       .  A
C1080      C1202   1.470       .  S
C1081      H1084   1.084       .  S
C1085      C1122   1.456       .  S
C1085      C1245   1.462       .  S
C1085      N1103   1.346       .  A
N1086      N1103   1.322       .  A
N1086      N1108   1.320       .  A
C1087      C1125   1.469       .  S
C1087      H1132   1.079       .  S
C1087      N1112   1.341       .  A
H1088      C1129   1.080       .  S
C1089      C1093   1.454   1_655  S
C1089      H1118   1.082       .  S
C1089      N1375   1.337   1_554  A
Co1090     N1632   2.077   1_545  S
Co1090     N1098   2.084       .  S
Co1090     N1130   2.085       .  S
Co1090     N1106   2.079       .  S
N1091      C1129   1.339       .  A
N1091      N1098   1.318       .  A
N1091     Co1092   2.071       .  S
Co1092     N1095   2.091       .  S
Co1092     N1112   2.092       .  S
C1093      C1188   1.464       .  S
N1094      N1101   1.317       .  A
N1094      N1124   1.320       .  A
N1094     Co1127   2.066       .  S
N1095      N1393   1.326       .  A
N1096      C1125   1.352       .  A
N1096      N1106   1.323       .  A
H1097      C1122   1.081       .  S
N1098      N1119   1.322       .  A
N1099      N1117   1.320       .  A
N1099      N1104   1.321       .  A
C1100      C1128   1.456       .  S
C1100      C1285   1.461       .  S
C1100      N1104   1.346       .  A
N1101      C1116   1.339       .  A
N1101     Co1123   2.086       .  S
C1102      H1136   1.082       .  S
C1102      N1130   1.339       .  A
C1105      C1178   1.466       .  S
C1105      N1650   1.350   1_545  A
N1106      N1112   1.318       .  A
N1107      C1133   1.338       .  A
N1107      N1109   1.317       .  A
N1107     Co1123   2.073       .  S
N1108      C1122   1.340       .  A
N1108     Co1614   2.077       .  S
N1109      N1137   1.323       .  A
N1109     Co1127   2.083       .  S
H1110      C1133   1.079       .  S
H1111      C1128   1.081   1_565  S
N1113      C1351   1.337       .  A
N1113     Co1127   2.073       .  S
N1114      N1126   1.325       .  A
N1114     Co1123   2.080       .  S
C1115      C1129   1.461       .  S
C1115      C1302   1.476       .  S
C1115      N1119   1.350       .  A
C1116      C1135   1.469       .  S
C1116      H1120   1.081       .  S
N1117      C1128   1.338       .  A
N1117     Co1651   2.074   1_545  S
C1121      C1133   1.462       .  S
C1121      C1235   1.481       .  S
C1121      N1137   1.352       .  A
Co1123    Cl1658   2.447       .  S
N1124      C1135   1.347       .  A
C1125      C1222   1.488       .  S
N1126      C1629   1.350       .  A
Co1127     N1641   2.074       .  S
Co1127    Cl1658   2.443       .  S
N1131      N1357   1.326   1_554  A
Cl1134    Co1647   2.447   1_545  S
Cl1134    Co1651   2.443   1_545  S
C1135      C1292   1.483       .  S
C1138      C1175   1.460       .  S
C1138      C1272   1.474       .  S
C1138      N1156   1.350       .  A
N1139      N1156   1.325       .  A
N1139      N1161   1.319       .  A
N1139     Co1176   2.083       .  S
C1140      C1702   1.462       .  S
C1140      H1185   1.082       .  S
C1140      N1165   1.342       .  A
H1141      C1182   1.082       .  S
C1142      C1146   1.460       .  S
C1142      H1171   1.082       .  S
C1142      N1166   1.343       .  A
Co1143     N1161   2.080       .  S
Co1143     N1675   2.079   1_545  S
Co1143     N1183   2.077       .  S
Co1143     N1159   2.076       .  S
N1144      C1182   1.337       .  A
N1144      N1151   1.320       .  A
Co1145     N1148   2.089       .  S
Co1145     N1165   2.090       .  S
Co1145     N1152   2.070       .  S
Co1145    Cl1711   2.446       .  S
C1146      C1265   1.478       .  S
C1146      N1184   1.350       .  A
N1147      N1177   1.323       .  A
N1147     Co1180   2.089       .  S
N1148      N1166   1.320       .  A
N1148      N1184   1.324       .  A
N1149      N1159   1.323       .  A
H1150      C1175   1.081       .  S
N1151      N1172   1.323       .  A
N1151     Co1667   2.079       .  S
N1152      N1170   1.318       .  A
N1152      N1157   1.320       .  A
C1153      C1181   1.467       .  S
C1153      C1205   1.483       .  S
C1153      N1157   1.347       .  A
N1154      C1169   1.340       .  A
N1154     Co1176   2.074       .  S
C1155      C1158   1.463       .  S
C1155      H1189   1.081       .  S
C1155      N1183   1.342       .  A
C1158      C1192   1.474       .  S
C1158      N1179   1.349       .  A
N1160      C1186   1.339       .  A
N1160      N1162   1.319       .  A
N1161      C1175   1.339       .  A
N1162      N1190   1.326       .  A
N1162     Co1704   2.088   1_545  S
H1163      C1186   1.081   1_455  S
H1164      C1181   1.081       .  S
N1166     Co1180   2.086       .  S
N1167      N1179   1.320       .  A
N1167      N1183   1.317       .  A
N1167     Co1176   2.076       .  S
C1168      C1182   1.456       .  S
C1168      C1212   1.466       .  S
C1168      N1172   1.348       .  A
C1169      H1173   1.082       .  S
N1170      C1181   1.339       .  A
N1170     Co1180   2.083       .  S
C1174      C1186   1.460       .  S
C1174      C1255   1.478       .  S
C1174      N1190   1.351       .  A
N1177      C1188   1.351   1_655  A
C1178      C1664   1.462   1_545  S
Co1180     N1686   2.088       .  S
Co1180    Cl1711   2.448       .  S
Cl1187    Co1669   2.446   1_545  S
Cl1187    Co1704   2.448   1_545  S
C1191      C1192   1.404       .  A
C1191      C1196   1.390       .  A
C1191      H1198   1.083       .  S
C1192      C1193   1.412       .  A
C1193      C1194   1.401       .  A
C1193     Br1200   1.918       .  S
C1194      C1195   1.402       .  A
C1194      H1199   1.084       .  S
C1195      C1196   1.406       .  A
C1196     Br1197   1.922       .  S
C1201      C1202   1.398       .  A
C1201      C1206   1.396       .  A
C1201      H1208   1.084       .  S
C1202      C1203   1.406       .  A
C1203      C1204   1.395       .  A
C1203     Br1210   1.921       .  S
C1204      C1205   1.407       .  A
C1204      H1209   1.081       .  S
C1205      C1206   1.419       .  A
C1206     Br1207   1.923       .  S
C1211      C1212   1.399       .  A
C1211      C1216   1.393       .  A
C1211      H1218   1.084       .  S
C1212      C1213   1.408       .  A
C1213      C1214   1.396       .  A
C1213     Br1220   1.920       .  S
C1214      C1215   1.404       .  A
C1214      H1219   1.084       .  S
C1215      C1216   1.413       .  A
C1216     Br1217   1.923       .  S
C1221      C1222   1.408       .  A
C1221      C1226   1.398       .  A
C1221      H1228   1.083       .  S
C1222      C1223   1.415       .  A
C1223      C1224   1.400       .  A
C1223     Br1230   1.919       .  S
C1224      C1225   1.404       .  A
C1224      H1229   1.084       .  S
C1225      C1226   1.408       .  A
C1226     Br1227   1.922       .  S
C1231      C1232   1.401       .  A
C1231      C1236   1.398       .  A
C1231      H1238   1.084       .  S
C1232      C1233   1.411       .  A
C1233      C1234   1.396       .  A
C1233     Br1240   1.921       .  S
C1234      C1235   1.404       .  A
C1234      H1239   1.083       .  S
C1235      C1236   1.417       .  A
C1236     Br1237   1.919       .  S
C1241      C1242   1.405       .  A
C1241      C1246   1.394       .  A
C1241      H1248   1.083       .  S
C1242      C1243   1.408       .  A
C1243      C1244   1.398       .  A
C1243     Br1250   1.918       .  S
C1244      C1245   1.402       .  A
C1244      H1249   1.084       .  S
C1245      C1246   1.406       .  A
C1246     Br1247   1.921       .  S
C1251      C1252   1.406       .  A
C1251      C1256   1.397       .  A
C1251      H1258   1.083       .  S
C1252      C1253   1.412       .  A
C1253      C1254   1.402       .  A
C1253     Br1260   1.921       .  S
C1254      C1255   1.405       .  A
C1254      H1259   1.083       .  S
C1255      C1256   1.411       .  A
C1256     Br1257   1.922       .  S
C1261      C1262   1.404       .  A
C1261      C1266   1.395       .  A
C1261      H1268   1.084       .  S
C1262      C1263   1.409       .  A
C1263      C1264   1.404       .  A
C1263     Br1270   1.917       .  S
C1264      C1265   1.405       .  A
C1264      H1269   1.084       .  S
C1265      C1266   1.411       .  A
C1266     Br1267   1.922       .  S
C1271      C1272   1.407       .  A
C1271      C1276   1.403       .  A
C1271      H1278   1.083       .  S
C1272      C1273   1.411       .  A
C1273      C1274   1.393       .  A
C1273     Br1280   1.921       .  S
C1274      C1275   1.400       .  A
C1274      H1279   1.084       .  S
C1275      C1276   1.407       .  A
C1276     Br1277   1.918       .  S
C1281      C1282   1.404       .  A
C1281      C1286   1.392       .  A
C1281      H1288   1.083       .  S
C1282      C1283   1.409       .  A
C1282      C1311   1.472       .  S
C1283      C1284   1.395       .  A
C1283     Br1290   1.921       .  S
C1284      C1285   1.402       .  A
C1284      H1289   1.084       .  S
C1285      C1286   1.406       .  A
C1286     Br1287   1.921       .  S
C1291      C1292   1.406       .  A
C1291      C1296   1.394       .  A
C1291      H1298   1.081       .  S
C1292      C1293   1.419       .  A
C1293      C1294   1.396       .  A
C1293     Br1300   1.923       .  S
C1294      C1295   1.398       .  A
C1294      H1561   1.083       .  S
C1295      C1296   1.406       .  A
C1295      C1315   1.469       .  S
C1296     Br1297   1.920       .  S
H1299      C1556   1.083   1_554  S
C1301      C1302   1.402       .  A
C1301      C1306   1.395       .  A
C1301      H1308   1.084       .  S
C1302      C1303   1.413       .  A
C1303      C1566   1.397       .  A
C1303     Br1572   1.919       .  S
C1304      C1565   1.397       .  A
C1304      C1567   1.402       .  A
C1304      H1309   1.084       .  S
C1305      C1566   1.402       .  A
C1305      C1306   1.413       .  A
C1305      C1313   1.479       .  S
C1306     Br1307   1.922       .  S
Br1310     C1565   1.919       .  S
C1311      C1312   1.402       .  A
C1311      C1316   1.400       .  A
C1312      C1313   1.401       .  A
C1312      H1317   1.084       .  S
C1313      C1314   1.403       .  A
C1314      C1315   1.401       .  A
C1314      H1318   1.084       .  S
C1315      C1316   1.397       .  A
C1316      H1319   1.084       .  S
C1320      C1321   1.408       .  A
C1320      C1325   1.409       .  A
C1320      C1514   1.488       .  S
C1321      C1322   1.402       .  A
C1321      H1326   1.083       .  S
C1322      C1323   1.400       .  A
C1322      C1537   1.474       .  S
C1323      C1324   1.400       .  A
C1323      H1327   1.085       .  S
C1324      C1325   1.403       .  A
C1324      C1524   1.483       .  S
C1325      H1328   1.084       .  S
C1329      C1330   1.400       .  A
C1329      C1334   1.404       .  A
C1329      C1504   1.475       .  S
C1330      C1331   1.399       .  A
C1330      H1335   1.084       .  S
C1331      C1332   1.403       .  A
C1331      C1494   1.479       .  S
C1332      C1333   1.404       .  A
C1332      H1336   1.084       .  S
C1333      C1334   1.404       .  A
C1333      C1487   1.483       .  S
C1334      H1337   1.084       .  S
C1338      C1339   1.402       .  A
C1338      C1343   1.403       .  A
C1338      C1477   1.475       .  S
C1339      C1340   1.397       .  A
C1339      H1344   1.084       .  S
C1340      C1341   1.399       .  A
C1340      C1457   1.469       .  S
C1341      C1342   1.400       .  A
C1341      H1345   1.085       .  S
C1342      C1343   1.399       .  A
C1342      C1464   1.470       .  S
C1343      H1346   1.084       .  S
C1347      C1384   1.456       .  S
C1347      C1507   1.462       .  S
C1347      N1365   1.346       .  A
N1348      N1365   1.322       .  A
N1348      N1370   1.320       .  A
C1349      C1387   1.469       .  S
C1349      H1394   1.079       .  S
C1349      N1374   1.341       .  A
H1350      C1391   1.080       .  S
C1351      C1355   1.454   1_655  S
C1351      H1380   1.082       .  S
Co1352     N1894   2.077   1_545  S
Co1352     N1360   2.084       .  S
Co1352     N1392   2.085       .  S
Co1352     N1368   2.079       .  S
N1353      C1391   1.339       .  A
N1353      N1360   1.318       .  A
N1353     Co1354   2.071       .  S
Co1354     N1357   2.091       .  S
Co1354     N1374   2.092       .  S
C1355      C1450   1.464       .  S
N1356      N1363   1.317       .  A
N1356      N1386   1.320       .  A
N1356     Co1389   2.066       .  S
N1358      C1387   1.352       .  A
N1358      N1368   1.323       .  A
H1359      C1384   1.081       .  S
N1360      N1381   1.322       .  A
N1361      N1379   1.320       .  A
N1361      N1366   1.321       .  A
C1362      C1390   1.456       .  S
C1362      C1547   1.461       .  S
C1362      N1366   1.346       .  A
N1363      C1378   1.339       .  A
N1363     Co1385   2.086       .  S
C1364      H1398   1.082       .  S
C1364      N1392   1.339       .  A
C1367      C1440   1.466       .  S
C1367      N1912   1.350   1_545  A
N1368      N1374   1.318       .  A
N1369      C1395   1.338       .  A
N1369      N1371   1.317       .  A
N1369     Co1385   2.073       .  S
N1370      C1384   1.340       .  A
N1370     Co1876   2.077       .  S
N1371      N1399   1.323       .  A
N1371     Co1389   2.083       .  S
H1372      C1395   1.079       .  S
H1373      C1390   1.081   1_565  S
N1375     Co1389   2.073       .  S
N1376      N1388   1.325       .  A
N1376     Co1385   2.080       .  S
C1377      C1391   1.461       .  S
C1377      C1564   1.476       .  S
C1377      N1381   1.350       .  A
C1378      C1397   1.469       .  S
C1378      H1382   1.081       .  S
N1379      C1390   1.338       .  A
N1379     Co1913   2.074   1_545  S
C1383      C1395   1.462       .  S
C1383      C1497   1.481       .  S
C1383      N1399   1.352       .  A
Co1385    Cl1920   2.447       .  S
N1386      C1397   1.347       .  A
C1387      C1484   1.488       .  S
N1388      C1891   1.350       .  A
Co1389     N1903   2.074       .  S
Co1389    Cl1920   2.443       .  S
Cl1396    Co1909   2.447   1_545  S
Cl1396    Co1913   2.443   1_545  S
C1397      C1554   1.483       .  S
C1400      C1437   1.460       .  S
C1400      C1534   1.474       .  S
C1400      N1418   1.350       .  A
N1401      N1418   1.325       .  A
N1401      N1423   1.319       .  A
N1401     Co1438   2.083       .  S
C1402      C1964   1.462       .  S
C1402      H1447   1.082       .  S
C1402      N1427   1.342       .  A
H1403      C1444   1.082       .  S
C1404      C1408   1.460       .  S
C1404      H1433   1.082       .  S
C1404      N1428   1.343       .  A
Co1405     N1423   2.080       .  S
Co1405     N1937   2.079   1_545  S
Co1405     N1445   2.077       .  S
Co1405     N1421   2.076       .  S
N1406      C1444   1.337       .  A
N1406      N1413   1.320       .  A
Co1407     N1410   2.089       .  S
Co1407     N1427   2.090       .  S
Co1407     N1414   2.070       .  S
Co1407    Cl1973   2.446       .  S
C1408      C1527   1.478       .  S
C1408      N1446   1.350       .  A
N1409      N1439   1.323       .  A
N1409     Co1442   2.089       .  S
N1410      N1428   1.320       .  A
N1410      N1446   1.324       .  A
N1411      N1421   1.323       .  A
H1412      C1437   1.081       .  S
N1413      N1434   1.323       .  A
N1413     Co1929   2.079       .  S
N1414      N1432   1.318       .  A
N1414      N1419   1.320       .  A
C1415      C1443   1.467       .  S
C1415      C1467   1.483       .  S
C1415      N1419   1.347       .  A
N1416      C1431   1.340       .  A
N1416     Co1438   2.074       .  S
C1417      C1420   1.463       .  S
C1417      H1451   1.081       .  S
C1417      N1445   1.342       .  A
C1420      C1454   1.474       .  S
C1420      N1441   1.349       .  A
N1422      C1448   1.339       .  A
N1422      N1424   1.319       .  A
N1423      C1437   1.339       .  A
N1424      N1452   1.326       .  A
N1424     Co1966   2.088   1_545  S
H1425      C1448   1.081   1_455  S
H1426      C1443   1.081       .  S
N1428     Co1442   2.086       .  S
N1429      N1441   1.320       .  A
N1429      N1445   1.317       .  A
N1429     Co1438   2.076       .  S
C1430      C1444   1.456       .  S
C1430      C1474   1.466       .  S
C1430      N1434   1.348       .  A
C1431      H1435   1.082       .  S
N1432      C1443   1.339       .  A
N1432     Co1442   2.083       .  S
C1436      C1448   1.460       .  S
C1436      C1517   1.478       .  S
C1436      N1452   1.351       .  A
N1439      C1450   1.351   1_655  A
C1440      C1926   1.462   1_545  S
Co1442     N1948   2.088       .  S
Co1442    Cl1973   2.448       .  S
Cl1449    Co1931   2.446   1_545  S
Cl1449    Co1966   2.448   1_545  S
C1453      C1454   1.404       .  A
C1453      C1458   1.390       .  A
C1453      H1460   1.083       .  S
C1454      C1455   1.412       .  A
C1455      C1456   1.401       .  A
C1455     Br1462   1.918       .  S
C1456      C1457   1.402       .  A
C1456      H1461   1.084       .  S
C1457      C1458   1.406       .  A
C1458     Br1459   1.922       .  S
C1463      C1464   1.398       .  A
C1463      C1468   1.396       .  A
C1463      H1470   1.084       .  S
C1464      C1465   1.406       .  A
C1465      C1466   1.395       .  A
C1465     Br1472   1.921       .  S
C1466      C1467   1.407       .  A
C1466      H1471   1.081       .  S
C1467      C1468   1.419       .  A
C1468     Br1469   1.923       .  S
C1473      C1474   1.399       .  A
C1473      C1478   1.393       .  A
C1473      H1480   1.084       .  S
C1474      C1475   1.408       .  A
C1475      C1476   1.396       .  A
C1475     Br1482   1.920       .  S
C1476      C1477   1.404       .  A
C1476      H1481   1.084       .  S
C1477      C1478   1.413       .  A
C1478     Br1479   1.923       .  S
C1483      C1484   1.408       .  A
C1483      C1488   1.398       .  A
C1483      H1490   1.083       .  S
C1484      C1485   1.415       .  A
C1485      C1486   1.400       .  A
C1485     Br1492   1.919       .  S
C1486      C1487   1.404       .  A
C1486      H1491   1.084       .  S
C1487      C1488   1.408       .  A
C1488     Br1489   1.922       .  S
C1493      C1494   1.401       .  A
C1493      C1498   1.398       .  A
C1493      H1500   1.084       .  S
C1494      C1495   1.411       .  A
C1495      C1496   1.396       .  A
C1495     Br1502   1.921       .  S
C1496      C1497   1.404       .  A
C1496      H1501   1.083       .  S
C1497      C1498   1.417       .  A
C1498     Br1499   1.919       .  S
C1503      C1504   1.405       .  A
C1503      C1508   1.394       .  A
C1503      H1510   1.083       .  S
C1504      C1505   1.408       .  A
C1505      C1506   1.398       .  A
C1505     Br1512   1.918       .  S
C1506      C1507   1.402       .  A
C1506      H1511   1.084       .  S
C1507      C1508   1.406       .  A
C1508     Br1509   1.921       .  S
C1513      C1514   1.406       .  A
C1513      C1518   1.397       .  A
C1513      H1520   1.083       .  S
C1514      C1515   1.412       .  A
C1515      C1516   1.402       .  A
C1515     Br1522   1.921       .  S
C1516      C1517   1.405       .  A
C1516      H1521   1.083       .  S
C1517      C1518   1.411       .  A
C1518     Br1519   1.922       .  S
C1523      C1524   1.404       .  A
C1523      C1528   1.395       .  A
C1523      H1530   1.084       .  S
C1524      C1525   1.409       .  A
C1525      C1526   1.404       .  A
C1525     Br1532   1.917       .  S
C1526      C1527   1.405       .  A
C1526      H1531   1.084       .  S
C1527      C1528   1.411       .  A
C1528     Br1529   1.922       .  S
C1533      C1534   1.407       .  A
C1533      C1538   1.403       .  A
C1533      H1540   1.083       .  S
C1534      C1535   1.411       .  A
C1535      C1536   1.393       .  A
C1535     Br1542   1.921       .  S
C1536      C1537   1.400       .  A
C1536      H1541   1.084       .  S
C1537      C1538   1.407       .  A
C1538     Br1539   1.918       .  S
C1543      C1544   1.404       .  A
C1543      C1548   1.392       .  A
C1543      H1550   1.083       .  S
C1544      C1545   1.409       .  A
C1545      C1546   1.395       .  A
C1545     Br1552   1.921   1_556  S
C1546      C1547   1.402       .  A
C1546      H1551   1.084   1_556  S
C1547      C1548   1.406       .  A
C1548     Br1549   1.921       .  S
C1553      C1554   1.406       .  A
C1553      C1558   1.394       .  A
C1553      H1560   1.081       .  S
C1554      C1555   1.419       .  A
C1555      C1556   1.396       .  A
C1555     Br1562   1.923   1_556  S
C1556      C1557   1.398       .  A
C1557      C1558   1.406       .  A
C1558     Br1559   1.920       .  S
C1563      C1564   1.402       .  A
C1563      C1568   1.395       .  A
C1563      H1570   1.084       .  S
C1564      C1565   1.413       .  A
C1566      H1571   1.084       .  S
C1567      C1568   1.413       .  A
C1568     Br1569   1.922       .  S
C1573      C1574   1.402       .  A
C1573      C1578   1.400       .  A
C1573      C2068   1.472       .  S
C1574      C1575   1.401       .  A
C1574      H1579   1.084       .  S
C1575      C1576   1.403       .  A
C1575      C2091   1.479       .  S
C1576      C1577   1.401       .  A
C1576      H1580   1.084       .  S
C1577      C1578   1.397       .  A
C1577      C2081   1.469       .  S
C1578      H1581   1.084       .  S
C1582      C1583   1.408       .  A
C1582      C1587   1.409       .  A
C1582      C1776   1.488       .  S
C1583      C1584   1.402       .  A
C1583      H1588   1.083       .  S
C1584      C1585   1.400       .  A
C1584      C1799   1.474       .  S
C1585      C1586   1.400       .  A
C1585      H1589   1.085       .  S
C1586      C1587   1.403       .  A
C1586      C1786   1.483       .  S
C1587      H1590   1.084       .  S
C1591      C1592   1.400       .  A
C1591      C1596   1.404       .  A
C1591      C1766   1.475       .  S
C1592      C1593   1.399       .  A
C1592      H1597   1.084       .  S
C1593      C1594   1.403       .  A
C1593      C1756   1.479       .  S
C1594      C1595   1.404       .  A
C1594      H1598   1.084       .  S
C1595      C1596   1.404       .  A
C1595      C1749   1.483       .  S
C1596      H1599   1.084       .  S
C1600      C1601   1.402       .  A
C1600      C1605   1.403       .  A
C1600      C1739   1.475       .  S
C1601      C1602   1.397       .  A
C1601      H1606   1.084       .  S
C1602      C1603   1.399       .  A
C1602      C1719   1.469       .  S
C1603      C1604   1.400       .  A
C1603      H1607   1.085       .  S
C1604      C1605   1.399       .  A
C1604      C1726   1.470       .  S
C1605      H1608   1.084       .  S
C1609      C1646   1.456       .  S
C1609      C1769   1.462       .  S
C1609      N1627   1.346       .  A
N1610      N1627   1.322       .  A
N1610      N1632   1.320       .  A
C1611      C1649   1.469       .  S
C1611      H1656   1.079       .  S
C1611      N1636   1.341       .  A
H1612      C1653   1.080       .  S
C1613      C1617   1.454   1_655  S
C1613      H1642   1.082       .  S
C1613      N1899   1.337   1_554  A
Co1614     N1622   2.084       .  S
Co1614     N1654   2.085       .  S
Co1614     N1630   2.079       .  S
N1615      C1653   1.339       .  A
N1615      N1622   1.318       .  A
N1615     Co1616   2.071       .  S
Co1616     N1619   2.091       .  S
Co1616     N1636   2.092       .  S
C1617      C1712   1.464       .  S
N1618      N1625   1.317       .  A
N1618      N1648   1.320       .  A
N1618     Co1651   2.066       .  S
N1619      N1917   1.326       .  A
N1620      C1649   1.352       .  A
N1620      N1630   1.323       .  A
H1621      C1646   1.081   1_545  S
N1622      N1643   1.322       .  A
N1623      N1641   1.320       .  A
N1623      N1628   1.321       .  A
C1624      C1652   1.456       .  S
C1624      C1809   1.461       .  S
C1624      N1628   1.346       .  A
N1625      C1640   1.339       .  A
N1625     Co1647   2.086       .  S
C1626      H1660   1.082       .  S
C1626      N1654   1.339       .  A
C1629      C1702   1.466       .  S
N1630      N1636   1.318       .  A
N1631      C1657   1.338       .  A
N1631      N1633   1.317       .  A
N1631     Co1647   2.073       .  S
N1632      C1646   1.340       .  A
N1633      N1661   1.323       .  A
N1633     Co1651   2.083       .  S
H1634      C1657   1.079       .  S
H1635      C1652   1.081       .  S
N1637      C1875   1.337       .  A
N1637     Co1651   2.073       .  S
N1638      N1650   1.325       .  A
N1638     Co1647   2.080       .  S
C1639      C1653   1.461       .  S
C1639      C1826   1.476       .  S
C1639      N1643   1.350       .  A
C1640      C1659   1.469       .  S
C1640      H1644   1.081       .  S
N1641      C1652   1.338       .  A
C1645      C1657   1.462       .  S
C1645      C1759   1.481       .  S
C1645      N1661   1.352       .  A
N1648      C1659   1.347       .  A
C1649      C1746   1.488       .  S
N1655      N1881   1.326   1_554  A
C1659      C1816   1.483       .  S
C1662      C1699   1.460       .  S
C1662      C1796   1.474       .  S
C1662      N1680   1.350       .  A
N1663      N1680   1.325       .  A
N1663      N1685   1.319       .  A
N1663     Co1700   2.083       .  S
C1664      H1709   1.082       .  S
C1664      N1689   1.342       .  A
H1665      C1706   1.082       .  S
C1666      C1670   1.460       .  S
C1666      H1695   1.082       .  S
C1666      N1690   1.343       .  A
Co1667     N1685   2.080       .  S
Co1667     N1707   2.077       .  S
Co1667     N1683   2.076       .  S
N1668      C1706   1.337       .  A
N1668      N1675   1.320       .  A
Co1669     N1672   2.089       .  S
Co1669     N1689   2.090       .  S
Co1669     N1676   2.070       .  S
C1670      C1789   1.478       .  S
C1670      N1708   1.350       .  A
N1671      N1701   1.323       .  A
N1671     Co1704   2.089       .  S
N1672      N1690   1.320       .  A
N1672      N1708   1.324       .  A
N1673      N1683   1.323       .  A
H1674      C1699   1.081       .  S
N1675      N1696   1.323       .  A
N1676      N1694   1.318       .  A
N1676      N1681   1.320       .  A
C1677      C1705   1.467       .  S
C1677      C1729   1.483       .  S
C1677      N1681   1.347       .  A
N1678      C1693   1.340       .  A
N1678     Co1700   2.074       .  S
C1679      C1682   1.463       .  S
C1679      H1713   1.081       .  S
C1679      N1707   1.342       .  A
C1682      C1716   1.474       .  S
C1682      N1703   1.349       .  A
N1684      C1710   1.339       .  A
N1684      N1686   1.319       .  A
N1685      C1699   1.339       .  A
N1686      N1714   1.326       .  A
H1687      C1710   1.081   1_455  S
H1688      C1705   1.081       .  S
N1690     Co1704   2.086       .  S
N1691      N1703   1.320       .  A
N1691      N1707   1.317       .  A
N1691     Co1700   2.076       .  S
C1692      C1706   1.456       .  S
C1692      C1736   1.466       .  S
C1692      N1696   1.348       .  A
C1693      H1697   1.082       .  S
N1694      C1705   1.339       .  A
N1694     Co1704   2.083       .  S
C1698      C1710   1.460       .  S
C1698      C1779   1.478       .  S
C1698      N1714   1.351       .  A
N1701      C1712   1.351   1_655  A
C1715      C1716   1.404       .  A
C1715      C1720   1.390       .  A
C1715      H1722   1.083       .  S
C1716      C1717   1.412       .  A
C1717      C1718   1.401       .  A
C1717     Br1724   1.918       .  S
C1718      C1719   1.402       .  A
C1718      H1723   1.084       .  S
C1719      C1720   1.406       .  A
C1720     Br1721   1.922       .  S
C1725      C1726   1.398       .  A
C1725      C1730   1.396       .  A
C1725      H1732   1.084       .  S
C1726      C1727   1.406       .  A
C1727      C1728   1.395       .  A
C1727     Br1734   1.921       .  S
C1728      C1729   1.407       .  A
C1728      H1733   1.081       .  S
C1729      C1730   1.419       .  A
C1730     Br1731   1.923       .  S
C1735      C1736   1.399       .  A
C1735      C1740   1.393       .  A
C1735      H1742   1.084       .  S
C1736      C1737   1.408       .  A
C1737      C1738   1.396       .  A
C1737     Br1744   1.920       .  S
C1738      C1739   1.404       .  A
C1738      H1743   1.084       .  S
C1739      C1740   1.413       .  A
C1740     Br1741   1.923       .  S
C1745      C1746   1.408       .  A
C1745      C1750   1.398       .  A
C1745      H1752   1.083       .  S
C1746      C1747   1.415       .  A
C1747      C1748   1.400       .  A
C1747     Br1754   1.919       .  S
C1748      C1749   1.404       .  A
C1748      H1753   1.084       .  S
C1749      C1750   1.408       .  A
C1750     Br1751   1.922       .  S
C1755      C1756   1.401       .  A
C1755      C1760   1.398       .  A
C1755      H1762   1.084       .  S
C1756      C1757   1.411       .  A
C1757      C1758   1.396       .  A
C1757     Br1764   1.921       .  S
C1758      C1759   1.404       .  A
C1758      H1763   1.083       .  S
C1759      C1760   1.417       .  A
C1760     Br1761   1.919       .  S
C1765      C1766   1.405       .  A
C1765      C1770   1.394       .  A
C1765      H1772   1.083       .  S
C1766      C1767   1.408       .  A
C1767      C1768   1.398       .  A
C1767     Br1774   1.918       .  S
C1768      C1769   1.402       .  A
C1768      H1773   1.084       .  S
C1769      C1770   1.406       .  A
C1770     Br1771   1.921       .  S
C1775      C1776   1.406       .  A
C1775      C1780   1.397       .  A
C1775      H1782   1.083       .  S
C1776      C1777   1.412       .  A
C1777      C1778   1.402       .  A
C1777     Br1784   1.921       .  S
C1778      C1779   1.405       .  A
C1778      H1783   1.083       .  S
C1779      C1780   1.411       .  A
C1780     Br1781   1.922       .  S
C1785      C1786   1.404       .  A
C1785      C1790   1.395       .  A
C1785      H1792   1.084       .  S
C1786      C1787   1.409       .  A
C1787      C1788   1.404       .  A
C1787     Br1794   1.917       .  S
C1788      C1789   1.405       .  A
C1788      H1793   1.084       .  S
C1789      C1790   1.411       .  A
C1790     Br1791   1.922       .  S
C1795      C1796   1.407       .  A
C1795      C1800   1.403       .  A
C1795      H1802   1.083       .  S
C1796      C1797   1.411       .  A
C1797      C1798   1.393       .  A
C1797     Br1804   1.921       .  S
C1798      C1799   1.400       .  A
C1798      H1803   1.084       .  S
C1799      C1800   1.407       .  A
C1800     Br1801   1.918       .  S
C1805      C1806   1.404       .  A
C1805      C1810   1.392       .  A
C1805      H1812   1.083       .  S
C1806      C1807   1.409       .  A
C1806      C1835   1.472       .  S
C1807      C1808   1.395       .  A
C1807     Br1814   1.921       .  S
C1808      C1809   1.402       .  A
C1808      H1813   1.084       .  S
C1809      C1810   1.406       .  A
C1810     Br1811   1.921       .  S
C1815      C1816   1.406       .  A
C1815      C1820   1.394       .  A
C1815      H1822   1.081       .  S
C1816      C1817   1.419       .  A
C1817      C1818   1.396       .  A
C1817     Br1824   1.923       .  S
C1818      C1819   1.398       .  A
C1818      H2085   1.083       .  S
C1819      C1820   1.406       .  A
C1819      C1839   1.469       .  S
C1820     Br1821   1.920       .  S
H1823      C2080   1.083   1_554  S
C1825      C1826   1.402       .  A
C1825      C1830   1.395       .  A
C1825      H1832   1.084       .  S
C1826      C1827   1.413       .  A
C1827      C2090   1.397       .  A
C1827     Br2096   1.919       .  S
C1828      C2089   1.397       .  A
C1828      C2091   1.402       .  A
C1828      H1833   1.084       .  S
C1829      C2090   1.402       .  A
C1829      C1830   1.413       .  A
C1829      C1837   1.479       .  S
C1830     Br1831   1.922       .  S
Br1834     C2089   1.919       .  S
C1835      C1836   1.402       .  A
C1835      C1840   1.400       .  A
C1836      C1837   1.401       .  A
C1836      H1841   1.084       .  S
C1837      C1838   1.403       .  A
C1838      C1839   1.401       .  A
C1838      H1842   1.084       .  S
C1839      C1840   1.397       .  A
C1840      H1843   1.084       .  S
C1844      C1845   1.408       .  A
C1844      C1849   1.409       .  A
C1844      C2038   1.488       .  S
C1845      C1846   1.402       .  A
C1845      H1850   1.083       .  S
C1846      C1847   1.400       .  A
C1846      C2061   1.474       .  S
C1847      C1848   1.400       .  A
C1847      H1851   1.085       .  S
C1848      C1849   1.403       .  A
C1848      C2048   1.483       .  S
C1849      H1852   1.084       .  S
C1853      C1854   1.400       .  A
C1853      C1858   1.404       .  A
C1853      C2028   1.475       .  S
C1854      C1855   1.399       .  A
C1854      H1859   1.084       .  S
C1855      C1856   1.403       .  A
C1855      C2018   1.479       .  S
C1856      C1857   1.404       .  A
C1856      H1860   1.084       .  S
C1857      C1858   1.404       .  A
C1857      C2011   1.483       .  S
C1858      H1861   1.084       .  S
C1862      C1863   1.402       .  A
C1862      C1867   1.403       .  A
C1862      C2001   1.475       .  S
C1863      C1864   1.397       .  A
C1863      H1868   1.084       .  S
C1864      C1865   1.399       .  A
C1864      C1981   1.469       .  S
C1865      C1866   1.400       .  A
C1865      H1869   1.085       .  S
C1866      C1867   1.399       .  A
C1866      C1988   1.470       .  S
C1867      H1870   1.084       .  S
C1871      C1908   1.456       .  S
C1871      C2031   1.462       .  S
C1871      N1889   1.346       .  A
N1872      N1889   1.322       .  A
N1872      N1894   1.320       .  A
C1873      C1911   1.469       .  S
C1873      H1918   1.079       .  S
C1873      N1898   1.341       .  A
H1874      C1915   1.080       .  S
C1875      C1879   1.454   1_655  S
C1875      H1904   1.082       .  S
Co1876     N1884   2.084       .  S
Co1876     N1916   2.085       .  S
Co1876     N1892   2.079       .  S
N1877      C1915   1.339       .  A
N1877      N1884   1.318       .  A
N1877     Co1878   2.071       .  S
Co1878     N1881   2.091       .  S
Co1878     N1898   2.092       .  S
C1879      C1974   1.464       .  S
N1880      N1887   1.317       .  A
N1880      N1910   1.320       .  A
N1880     Co1913   2.066       .  S
N1882      C1911   1.352       .  A
N1882      N1892   1.323       .  A
H1883      C1908   1.081   1_545  S
N1884      N1905   1.322       .  A
N1885      N1903   1.320       .  A
N1885      N1890   1.321       .  A
C1886      C1914   1.456       .  S
C1886      C2071   1.461       .  S
C1886      N1890   1.346       .  A
N1887      C1902   1.339       .  A
N1887     Co1909   2.086       .  S
C1888      H1922   1.082       .  S
C1888      N1916   1.339       .  A
C1891      C1964   1.466       .  S
N1892      N1898   1.318       .  A
N1893      C1919   1.338       .  A
N1893      N1895   1.317       .  A
N1893     Co1909   2.073       .  S
N1894      C1908   1.340       .  A
N1895      N1923   1.323       .  A
N1895     Co1913   2.083       .  S
H1896      C1919   1.079       .  S
H1897      C1914   1.081       .  S
N1899     Co1913   2.073       .  S
N1900      N1912   1.325       .  A
N1900     Co1909   2.080       .  S
C1901      C1915   1.461       .  S
C1901      C2088   1.476       .  S
C1901      N1905   1.350       .  A
C1902      C1921   1.469       .  S
C1902      H1906   1.081       .  S
N1903      C1914   1.338       .  A
C1907      C1919   1.462       .  S
C1907      C2021   1.481       .  S
C1907      N1923   1.352       .  A
N1910      C1921   1.347       .  A
C1911      C2008   1.488       .  S
C1921      C2078   1.483       .  S
C1924      C1961   1.460       .  S
C1924      C2058   1.474       .  S
C1924      N1942   1.350       .  A
N1925      N1942   1.325       .  A
N1925      N1947   1.319       .  A
N1925     Co1962   2.083       .  S
C1926      H1971   1.082       .  S
C1926      N1951   1.342       .  A
H1927      C1968   1.082       .  S
C1928      C1932   1.460       .  S
C1928      H1957   1.082       .  S
C1928      N1952   1.343       .  A
Co1929     N1947   2.080       .  S
Co1929     N1969   2.077       .  S
Co1929     N1945   2.076       .  S
N1930      C1968   1.337       .  A
N1930      N1937   1.320       .  A
Co1931     N1934   2.089       .  S
Co1931     N1951   2.090       .  S
Co1931     N1938   2.070       .  S
C1932      C2051   1.478       .  S
C1932      N1970   1.350       .  A
N1933      N1963   1.323       .  A
N1933     Co1966   2.089       .  S
N1934      N1952   1.320       .  A
N1934      N1970   1.324       .  A
N1935      N1945   1.323       .  A
H1936      C1961   1.081       .  S
N1937      N1958   1.323       .  A
N1938      N1956   1.318       .  A
N1938      N1943   1.320       .  A
C1939      C1967   1.467       .  S
C1939      C1991   1.483       .  S
C1939      N1943   1.347       .  A
N1940      C1955   1.340       .  A
N1940     Co1962   2.074       .  S
C1941      C1944   1.463       .  S
C1941      H1975   1.081       .  S
C1941      N1969   1.342       .  A
C1944      C1978   1.474       .  S
C1944      N1965   1.349       .  A
N1946      C1972   1.339       .  A
N1946      N1948   1.319       .  A
N1947      C1961   1.339       .  A
N1948      N1976   1.326       .  A
H1949      C1972   1.081   1_455  S
H1950      C1967   1.081       .  S
N1952     Co1966   2.086       .  S
N1953      N1965   1.320       .  A
N1953      N1969   1.317       .  A
N1953     Co1962   2.076       .  S
C1954      C1968   1.456       .  S
C1954      C1998   1.466       .  S
C1954      N1958   1.348       .  A
C1955      H1959   1.082       .  S
N1956      C1967   1.339       .  A
N1956     Co1966   2.083       .  S
C1960      C1972   1.460       .  S
C1960      C2041   1.478       .  S
C1960      N1976   1.351       .  A
N1963      C1974   1.351   1_655  A
C1977      C1978   1.404       .  A
C1977      C1982   1.390       .  A
C1977      H1984   1.083       .  S
C1978      C1979   1.412       .  A
C1979      C1980   1.401       .  A
C1979     Br1986   1.918       .  S
C1980      C1981   1.402       .  A
C1980      H1985   1.084       .  S
C1981      C1982   1.406       .  A
C1982     Br1983   1.922       .  S
C1987      C1988   1.398       .  A
C1987      C1992   1.396       .  A
C1987      H1994   1.084       .  S
C1988      C1989   1.406       .  A
C1989      C1990   1.395       .  A
C1989     Br1996   1.921       .  S
C1990      C1991   1.407       .  A
C1990      H1995   1.081       .  S
C1991      C1992   1.419       .  A
C1992     Br1993   1.923       .  S
C1997      C1998   1.399       .  A
C1997      C2002   1.393       .  A
C1997      H2004   1.084       .  S
C1998      C1999   1.408       .  A
C1999      C2000   1.396       .  A
C1999     Br2006   1.920       .  S
C2000      C2001   1.404       .  A
C2000      H2005   1.084       .  S
C2001      C2002   1.413       .  A
C2002     Br2003   1.923       .  S
C2007      C2008   1.408       .  A
C2007      C2012   1.398       .  A
C2007      H2014   1.083       .  S
C2008      C2009   1.415       .  A
C2009      C2010   1.400       .  A
C2009     Br2016   1.919       .  S
C2010      C2011   1.404       .  A
C2010      H2015   1.084       .  S
C2011      C2012   1.408       .  A
C2012     Br2013   1.922       .  S
C2017      C2018   1.401       .  A
C2017      C2022   1.398       .  A
C2017      H2024   1.084       .  S
C2018      C2019   1.411       .  A
C2019      C2020   1.396       .  A
C2019     Br2026   1.921       .  S
C2020      C2021   1.404       .  A
C2020      H2025   1.083       .  S
C2021      C2022   1.417       .  A
C2022     Br2023   1.919       .  S
C2027      C2028   1.405       .  A
C2027      C2032   1.394       .  A
C2027      H2034   1.083       .  S
C2028      C2029   1.408       .  A
C2029      C2030   1.398       .  A
C2029     Br2036   1.918       .  S
C2030      C2031   1.402       .  A
C2030      H2035   1.084       .  S
C2031      C2032   1.406       .  A
C2032     Br2033   1.921       .  S
C2037      C2038   1.406       .  A
C2037      C2042   1.397       .  A
C2037      H2044   1.083       .  S
C2038      C2039   1.412       .  A
C2039      C2040   1.402       .  A
C2039     Br2046   1.921       .  S
C2040      C2041   1.405       .  A
C2040      H2045   1.083       .  S
C2041      C2042   1.411       .  A
C2042     Br2043   1.922       .  S
C2047      C2048   1.404       .  A
C2047      C2052   1.395       .  A
C2047      H2054   1.084       .  S
C2048      C2049   1.409       .  A
C2049      C2050   1.404       .  A
C2049     Br2056   1.917       .  S
C2050      C2051   1.405       .  A
C2050      H2055   1.084       .  S
C2051      C2052   1.411       .  A
C2052     Br2053   1.922       .  S
C2057      C2058   1.407       .  A
C2057      C2062   1.403       .  A
C2057      H2064   1.083       .  S
C2058      C2059   1.411       .  A
C2059      C2060   1.393       .  A
C2059     Br2066   1.921       .  S
C2060      C2061   1.400       .  A
C2060      H2065   1.084       .  S
C2061      C2062   1.407       .  A
C2062     Br2063   1.918       .  S
C2067      C2068   1.404       .  A
C2067      C2072   1.392       .  A
C2067      H2074   1.083       .  S
C2068      C2069   1.409       .  A
C2069      C2070   1.395       .  A
C2069     Br2076   1.921   1_556  S
C2070      C2071   1.402       .  A
C2070      H2075   1.084   1_556  S
C2071      C2072   1.406       .  A
C2072     Br2073   1.921       .  S
C2077      C2078   1.406       .  A
C2077      C2082   1.394       .  A
C2077      H2084   1.081       .  S
C2078      C2079   1.419       .  A
C2079      C2080   1.396       .  A
C2079     Br2086   1.923   1_556  S
C2080      C2081   1.398       .  A
C2081      C2082   1.406       .  A
C2082     Br2083   1.920       .  S
C2087      C2088   1.402       .  A
C2087      C2092   1.395       .  A
C2087      H2094   1.084       .  S
C2088      C2089   1.413       .  A
C2090      H2095   1.084       .  S
C2091      C2092   1.413       .  A
C2092     Br2093   1.922       .  S
