geometry optimzed in LAMMPS
_audit_creation_date              2020-12-01 
_audit_creation_method            'lammps2cif' 
_symmetry_space_group_name_H-M    'P1' 
_symmetry_Int_Tables_number       1 
_symmetry_cell_setting            triclinic 
loop_ 
_symmetry_equiv_pos_as_xyz 
  x,y,z 
_cell_length_a                    52.35710419 
_cell_length_b                    52.29414153069811 
_cell_length_c                    66.55759863305896 
_cell_angle_alpha                 89.93086675453307 
_cell_angle_beta                  90.0880067724606 
_cell_angle_gamma                 119.96998756478561 
loop_ 
_atom_site_label 
_atom_site_type_symbol 
_atom_site_fract_x 
_atom_site_fract_y 
_atom_site_fract_z 
_atom_site_charge 
Zn1        Zn  0.81486549  0.17551894  0.19258774     1.49700
Zn2        Zn  0.80956331  0.12438858  0.16280429     1.49400
Zn3        Zn  0.81495224  0.18429468  0.14554723     1.49100
Zn4        Zn  0.87059398  0.18525807  0.16554355     1.49500
O5          O  0.82756117  0.16727324  0.16672414    -1.84100
O6          O  0.78887257  0.13755701  0.20742456    -0.74700
O7          O  0.78430296  0.11142140  0.13773444    -0.74500
O8          O  0.79534338  0.20584986  0.15650629    -0.74100
O9          O  0.78431875  0.10209765  0.18682052    -0.74700
O10         O  0.79187513  0.19704509  0.18928100    -0.74300
O11         O  0.78617766  0.15268847  0.12713833    -0.74900
O12         O  0.88824215  0.21333935  0.14162478    -0.74300
O13         O  0.84042267  0.11202708  0.16014198    -0.75100
O14         O  0.84901384  0.21314516  0.12875419    -0.74500
O15         O  0.88271310  0.15408381  0.16348015    -0.74900
O16         O  0.88819627  0.20758933  0.19124757    -0.74800
O17         O  0.85028594  0.20105735  0.21007585    -0.74600
C18         C  0.77859957  0.11031047  0.20343340     0.77200
C19         C  0.77668965  0.12514118  0.12545284     0.77700
C20         C  0.78694476  0.20847355  0.17391744     0.76600
C21         C  0.87655815  0.22231403  0.12861122     0.77000
C22         C  0.86847004  0.12613858  0.16122875     0.78100
C23         C  0.87789900  0.21178370  0.20748844     0.77200
C24         C  0.01932511  0.31815241  0.31963820     0.80300
N25         N  0.01452176  0.33338674  0.33437574    -0.78100
C26         C  0.03513840  0.34731868  0.34903994     0.82700
N27         N  0.06013165  0.34559610  0.34891984    -0.78000
C28         C  0.06505698  0.33039814  0.33449930     0.82800
N29         N  0.04461778  0.31684543  0.31991616    -0.79700
C30         C  0.67852113  0.96756327  0.31599489     0.80300
N31         N  0.67946476  0.94206606  0.31627470    -0.78100
C32         C  0.66865057  0.92324849  0.33210046     0.82700
N33         N  0.65663293  0.93009649  0.34778486    -0.78000
C34         C  0.65530373  0.95539354  0.34784125     0.82800
N35         N  0.66637956  0.97412213  0.33186787    -0.79700
C36         C  0.99602318  0.36574738  0.02040499     0.80300
N37         N  0.01291212  0.36078771  0.00718996    -0.78100
C38         C  0.02890940  0.38131238  0.99293114     0.82700
N39         N  0.02786547  0.40672015  0.99201637    -0.78000
C40         C  0.01098419  0.41184669  0.00501160     0.82800
N41         N  0.99505813  0.39118735  0.01910676    -0.79700
C42         C  0.63459899  0.01277675  0.01567739     0.80300
N43         N  0.63988033  0.99728742  0.00150807    -0.78100
C44         C  0.61864955  0.98047083  0.98794222     0.82700
N45         N  0.59215868  0.97920240  0.98868189    -0.78000
C46         C  0.58664249  0.99461869  0.00268624     0.82800
N47         N  0.60801569  0.01144093  0.01612441    -0.79700
Zn48       Zn  0.48354389  0.51025283  0.47661148     1.49700
Zn49       Zn  0.54245851  0.51669930  0.49652995     1.49400
Zn50       Zn  0.48765914  0.50671525  0.52354607     1.49100
Zn51       Zn  0.48267263  0.45398864  0.49578616     1.49500
O52         O  0.49922686  0.49685899  0.49812164    -1.84100
O53         O  0.51586538  0.53569114  0.45750574    -0.74700
O54         O  0.56123778  0.54285030  0.52092591    -0.74500
O55         O  0.46578932  0.52895076  0.51981488    -0.74100
O56         O  0.55716711  0.54049794  0.47062738    -0.74700
O57         O  0.46557230  0.53414979  0.48679326    -0.74300
O58         O  0.52296118  0.53246245  0.54052042    -0.74900
O59         O  0.45924021  0.43353643  0.52076660    -0.74300
O60         O  0.55639571  0.48696413  0.49665362    -0.75100
O61         O  0.46203476  0.47019599  0.53925461    -0.74500
O62         O  0.51504041  0.44385329  0.49342269    -0.74900
O63         O  0.45504604  0.43696202  0.47184653    -0.74800
O64         O  0.45232469  0.47577552  0.46106123    -0.74600
C65         C  0.54360002  0.54588113  0.45679518     0.77200
C66         C  0.55063958  0.54570440  0.53748361     0.77700
C67         C  0.45939987  0.53900515  0.50436982     0.76600
C68         C  0.45286413  0.44286925  0.53660651     0.77000
C69         C  0.54303925  0.45899244  0.49480851     0.78100
C70         C  0.44416061  0.44841269  0.46018067     0.77200
Zn71       Zn  0.63294824  0.81929236  0.85461182     1.49700
Zn72       Zn  0.64247539  0.82349603  0.80787299     1.49400
Zn73       Zn  0.68650728  0.87747960  0.83652348     1.49100
Zn74       Zn  0.68799810  0.81675814  0.83657260     1.49500
O75         O  0.66272145  0.83439427  0.83380669    -1.84100
O76         O  0.59202280  0.79814707  0.84366873    -0.74700
O77         O  0.65350547  0.85968228  0.79132288    -0.74500
O78         O  0.67464342  0.89253343  0.86094048    -0.74100
O79         O  0.59816147  0.80057982  0.81061553    -0.74700
O80         O  0.63549918  0.85152588  0.87173964    -0.74300
O81         O  0.68201353  0.89692477  0.81161573    -0.74900
O82         O  0.73077675  0.84864785  0.83649470    -0.74300
O83         O  0.65337975  0.79756919  0.79252240    -0.75100
O84         O  0.72989498  0.89063024  0.83840794    -0.74500
O85         O  0.68252548  0.78995427  0.81290973    -0.74900
O86         O  0.67912687  0.79303884  0.86249857    -0.74800
O87         O  0.63825458  0.79203222  0.87275797    -0.74600
C88         C  0.58151520  0.79244498  0.82597889     0.77200
C89         C  0.66909648  0.88725139  0.79478001     0.77700
C90         C  0.65311956  0.87912892  0.87307172     0.76600
C91         C  0.74408673  0.87673323  0.83743851     0.77000
C92         C  0.66869981  0.78542399  0.79631313     0.78100
C93         C  0.65764303  0.78434076  0.87474917     0.77200
C94         C  0.68533088  0.65267881  0.65229398     0.80300
N95         N  0.67786122  0.66327619  0.66858189    -0.78100
C96         C  0.69670925  0.67460714  0.68449610     0.82700
N97         N  0.72297588  0.67525453  0.68392096    -0.78000
C98         C  0.73059957  0.66478559  0.66775011     0.82800
N99         N  0.71166736  0.65359722  0.65209070    -0.79700
C100        C  0.69556266  0.04454091  0.65306536     0.80300
N101        N  0.71987432  0.07173187  0.65463664    -0.78100
C102        C  0.73898586  0.07823656  0.67014503     0.82700
N103        N  0.73321247  0.05741889  0.68431204    -0.78000
C104        C  0.70894345  0.03019895  0.68304303     0.82800
N105        N  0.69020620  0.02369577  0.66723124    -0.79700
C106        C  0.64621830  0.62642787  0.01218462     0.80300
N107        N  0.62014887  0.60066674  0.01235252    -0.78100
C108        C  0.59841282  0.59572416  0.99915537     0.82700
N109        N  0.60300493  0.61701859  0.98558026    -0.78000
C110        C  0.62909786  0.64288954  0.98508388     0.82800
N111        N  0.65064494  0.64751790  0.99846548    -0.79700
Zn112      Zn  0.98009299  0.51968950  0.49869150     1.49700
Zn113      Zn  0.03512845  0.51490499  0.48260108     1.49400
Zn114      Zn  0.02514572  0.51323627  0.52915082     1.49100
Zn115      Zn  0.97960954  0.45850315  0.50188288     1.49500
O116        O  0.00479254  0.50154438  0.50315049    -1.84100
O117        O  0.99267492  0.54518340  0.47359699    -0.74700
O118        O  0.07605541  0.53416389  0.49400072    -0.74500
O119        O  0.01362356  0.53946171  0.54352800    -0.74100
O120        O  0.03253665  0.54369952  0.46393829    -0.74700
O121        O  0.98349504  0.54504832  0.52270159    -0.74300
O122        O  0.06980011  0.53512013  0.52683209    -0.74900
O123        O  0.98337065  0.43971301  0.52737590    -0.74300
O124        O  0.03021796  0.48100819  0.46603580    -0.75100
O125        O  0.01375251  0.47761427  0.54655309    -0.74500
O126        O  0.99022434  0.44163733  0.47795956    -0.74900
O127        O  0.93666316  0.44652663  0.49937813    -0.74800
O128        O  0.93672667  0.48874344  0.49563147    -0.74600
C129        C  0.01440216  0.55300611  0.46170225     0.77200
C130        C  0.08661879  0.54102349  0.51166034     0.77700
C131        C  0.99721767  0.55031732  0.53940812     0.76600
C132        C  0.99722079  0.44996823  0.54384259     0.77000
C133        C  0.01141442  0.45359332  0.46544047     0.78100
C134        C  0.92293872  0.46064768  0.49676202     0.77200
Zn135      Zn  0.82973293  0.64497182  0.18925648     1.49700
Zn136      Zn  0.81963505  0.68994524  0.16158141     1.49400
Zn137      Zn  0.88255698  0.69272672  0.16161140     1.49100
Zn138      Zn  0.82542716  0.63761726  0.14251375     1.49500
O139        O  0.83953477  0.66665939  0.16383628    -1.84100
O140        O  0.80464789  0.65525584  0.20625101    -0.74700
O141        O  0.84922518  0.73341366  0.15911212    -0.74500
O142        O  0.90322965  0.68835299  0.18618110    -0.74100
O143        O  0.79604463  0.68480918  0.18688234    -0.74700
O144        O  0.86636148  0.65549049  0.20498476    -0.74300
O145        O  0.89262872  0.73541819  0.16048049    -0.74900
O146        O  0.85858713  0.64360692  0.12532555    -0.74300
O147        O  0.79291404  0.67844213  0.13704668    -0.75100
O148        O  0.89880216  0.68346804  0.13642427    -0.74500
O149        O  0.79638965  0.64078074  0.12486217    -0.74900
O150        O  0.80579495  0.59604653  0.15235293    -0.74800
O151        O  0.80732999  0.60072888  0.18544133    -0.74600
C152        C  0.79276970  0.67106359  0.20339785     0.77200
C153        C  0.87729375  0.74813621  0.15935320     0.77700
C154        C  0.89378598  0.67292830  0.20217361     0.76600
C155        C  0.88592539  0.66223053  0.12397022     0.77000
C156        C  0.78590062  0.65803262  0.12411914     0.78100
C157        C  0.79968335  0.58463536  0.16977442     0.77200
C158        C  0.65662739  0.68632546  0.34618173     0.80300
N159        N  0.67157774  0.68113722  0.33152269    -0.78100
C160        C  0.68551825  0.70145578  0.31673542     0.82700
N161        N  0.68462626  0.72697061  0.31691238    -0.78000
C162        C  0.67021066  0.73257234  0.33159259     0.82800
N163        N  0.65611789  0.71206486  0.34611083    -0.79700
C164        C  0.03346500  0.69853073  0.31361646     0.80300
N165        N  0.02680101  0.67869430  0.32885751    -0.78100
C166        C  0.04715101  0.68395344  0.34348392     0.82700
N167        N  0.07373037  0.70915231  0.34288660    -0.78000
C168        C  0.08031598  0.72913892  0.32802465     0.82800
N169        N  0.06013451  0.72359585  0.31347826    -0.79700
Zn170      Zn  0.52262186  0.97549400  0.50260386     1.49700
Zn171      Zn  0.46099616  0.97523617  0.50101515     1.49400
Zn172      Zn  0.51662476  0.02884480  0.52082198     1.49100
Zn173      Zn  0.51665730  0.02189112  0.47376910     1.49500
O174        O  0.50414312  0.00010095  0.49937929    -1.84100
O175        O  0.49153951  0.93255167  0.50643998    -0.74700
O176        O  0.44281450  0.98585640  0.52462096    -0.74500
O177        O  0.54511419  0.02552169  0.53891955    -0.74100
O178        O  0.44910229  0.93229540  0.50367321    -0.74700
O179        O  0.54973956  0.98838122  0.52699952    -0.74300
O180        O  0.48295932  0.02378479  0.53741624    -0.74900
O181        O  0.53891788  0.06649313  0.47768673    -0.74300
O182        O  0.44334595  0.97942042  0.47532614    -0.75100
O183        O  0.53576190  0.07020425  0.51066652    -0.74500
O184        O  0.48093661  0.01152161  0.45655476    -0.74900
O185        O  0.54259226  0.01052860  0.45815978    -0.74800
O186        O  0.54603250  0.97774945  0.47756189    -0.74600
C187        C  0.46343655  0.91872554  0.50601765     0.77200
C188        C  0.45524734  0.00649902  0.53752876     0.77700
C189        C  0.55624268  0.00879562  0.53987310     0.76600
C190        C  0.54368163  0.08206009  0.49344878     0.77000
C191        C  0.45340723  0.99412805  0.45913600     0.78100
C192        C  0.55193477  0.99254274  0.46126766     0.77200
Zn193      Zn  0.19069430  0.36737316  0.85730906     1.49700
Zn194      Zn  0.18139033  0.35911584  0.81046920     1.49400
Zn195      Zn  0.18939003  0.31163025  0.83643912     1.49100
Zn196      Zn  0.12997894  0.31457689  0.84075669     1.49500
O197        O  0.17273423  0.33801142  0.83616721    -1.84100
O198        O  0.21182059  0.40904664  0.84685021    -0.74700
O199        O  0.20532571  0.34798982  0.79243950    -0.74500
O200        O  0.21621558  0.31936233  0.86060416    -0.74100
O201        O  0.20422873  0.40344497  0.81401171    -0.74700
O202        O  0.21958944  0.36065164  0.87255765    -0.74300
O203        O  0.21294509  0.31716828  0.81110030    -0.74900
O204        O  0.11599557  0.27080147  0.84167848    -0.74300
O205        O  0.14375838  0.34952456  0.79631391    -0.75100
O206        O  0.15699587  0.26890735  0.83697581    -0.74500
O207        O  0.10829829  0.32031241  0.81755537    -0.74900
O208        O  0.11818480  0.32633496  0.86678623    -0.74800
O209        O  0.16040089  0.36469839  0.87695807    -0.74600
C210        C  0.21488699  0.42000816  0.82934870     0.77200
C211        C  0.21663674  0.33153905  0.79483808     0.77700
C212        C  0.22694503  0.34085238  0.87295689     0.76600
C213        C  0.12914046  0.25604771  0.83933280     0.77000
C214        C  0.11658521  0.33423509  0.80092732     0.78100
C215        C  0.13285504  0.34726842  0.87916489     0.77200
C216        C  0.33943065  0.30431051  0.64818259     0.80300
N217        N  0.32783877  0.31207512  0.66374704    -0.78100
C218        C  0.31647350  0.29398198  0.68000705     0.82700
N219        N  0.31689678  0.26819748  0.68059559    -0.78000
C220        C  0.32813921  0.26018520  0.66507593     0.82800
N221        N  0.33934149  0.27838488  0.64904158    -0.79700
C222        C  0.96370785  0.31346254  0.65869124     0.80300
N223        N  0.93762609  0.28777234  0.65896197    -0.78100
C224        C  0.92925638  0.26957606  0.67507032     0.82700
N225        N  0.94744360  0.27726816  0.69120363    -0.78000
C226        C  0.97373626  0.30291658  0.69134705     0.82800
N227        N  0.98180056  0.32104295  0.67499466    -0.79700
Zn228      Zn  0.35005306  0.17207073  0.19389157     1.49700
Zn229      Zn  0.30391386  0.12003317  0.16432904     1.49400
Zn230      Zn  0.30507199  0.18155270  0.16634536     1.49100
Zn231      Zn  0.35953209  0.17826542  0.14743466     1.49500
O232        O  0.32940610  0.16280296  0.16805356    -1.84100
O233        O  0.33951664  0.13479394  0.20820537    -0.74700
O234        O  0.26102361  0.10869374  0.16052756    -0.74500
O235        O  0.30809218  0.20338892  0.19192158    -0.74100
O236        O  0.30668315  0.09849855  0.18886302    -0.74700
O237        O  0.33762344  0.19508386  0.21144404    -0.74300
O238        O  0.26213264  0.15156160  0.16289028    -0.74900
O239        O  0.35503834  0.20695580  0.13050497    -0.74300
O240        O  0.31608281  0.10600277  0.13967401    -0.75100
O241        O  0.31694993  0.20959510  0.14276085    -0.74500
O242        O  0.35627644  0.14636206  0.12918416    -0.74900
O243        O  0.40051313  0.20012974  0.15865463    -0.74800
O244        O  0.39462055  0.19567603  0.19164438    -0.74600
C245        C  0.32201420  0.10751118  0.20491935     0.77200
C246        C  0.24789486  0.12367850  0.16060267     0.77700
C247        C  0.32112897  0.20620317  0.20864108     0.76600
C248        C  0.33767110  0.21732649  0.13003700     0.77000
C249        C  0.33754478  0.11901738  0.12744778     0.78100
C250        C  0.41125928  0.20541985  0.17630709     0.77200
C251        C  0.29700619  0.33465992  0.35279756     0.80300
N252        N  0.27147114  0.33541847  0.35215791    -0.78100
C253        C  0.25210437  0.32276536  0.33681810     0.82700
N254        N  0.25864964  0.30947982  0.32184788    -0.78000
C255        C  0.28404292  0.30843310  0.32216066     0.82800
N256        N  0.30319889  0.32095833  0.33777129    -0.79700
C257        C  0.29700330  0.96985733  0.31692978     0.80300
N258        N  0.27216989  0.94308164  0.31707289    -0.78100
C259        C  0.26652765  0.92365426  0.33213651     0.82700
N260        N  0.28612000  0.93121324  0.34737179    -0.78000
C261        C  0.31118770  0.95799939  0.34767293     0.82800
N262        N  0.31664780  0.97736084  0.33232862    -0.79700
C263        C  0.37492372  0.35855218  0.01822466     0.80300
N264        N  0.35531590  0.35232547  0.00297272    -0.78100
C265        C  0.36183530  0.37202635  0.98777364     0.82700
N266        N  0.38782969  0.39784364  0.98807313    -0.78000
C267        C  0.40752660  0.40428924  0.00311401     0.82800
N268        N  0.40101043  0.38444602  0.01812899    -0.79700
Zn269      Zn  0.14748387  0.79401875  0.82514079     1.49700
Zn270      Zn  0.20702090  0.85591031  0.82748900     1.49400
Zn271      Zn  0.14999672  0.85138098  0.80662158     1.49100
Zn272      Zn  0.15095477  0.84546593  0.85363055     1.49500
O273        O  0.16397482  0.83667780  0.82830199    -1.84100
O274        O  0.17909617  0.78340457  0.82084286    -0.74700
O275        O  0.22341550  0.88597153  0.80500415    -0.74500
O276        O  0.11944003  0.81804046  0.79033557    -0.74100
O277        O  0.22080189  0.82626218  0.82300869    -0.74700
O278        O  0.11939284  0.77809961  0.80176584    -0.74300
O279        O  0.18310667  0.87774427  0.78832419    -0.74900
O280        O  0.12834238  0.86738147  0.84979429    -0.74300
O281        O  0.22430388  0.87583634  0.85384203    -0.75100
O282        O  0.13131654  0.87443577  0.81680189    -0.74500
O283        O  0.18573586  0.86902237  0.87189778    -0.74900
O284        O  0.12465526  0.80804813  0.86822449    -0.74800
O285        O  0.12462285  0.77265580  0.84977945    -0.74600
C286        C  0.20714156  0.79834200  0.82062174     0.77200
C287        C  0.21100999  0.89072214  0.79010911     0.77700
C288        C  0.10994010  0.79041808  0.78972272     0.76600
C289        C  0.12315581  0.87796848  0.83407725     0.77000
C290        C  0.21335258  0.87900426  0.87009350     0.78100
C291        C  0.11678783  0.78105062  0.86538019     0.77200
C292        C  0.96814946  0.68117360  0.67940398     0.80300
N293        N  0.97446678  0.66725559  0.66467229    -0.78100
C294        C  0.95561336  0.65471750  0.64893447     0.82700
N295        N  0.93020777  0.65582500  0.64825160    -0.78000
C296        C  0.92360532  0.66937009  0.66308179     0.82800
N297        N  0.94280690  0.68210888  0.67845619    -0.79700
C298        C  0.33186765  0.03335716  0.68325794     0.80300
N299        N  0.34291153  0.02609352  0.66713865    -0.78100
C300        C  0.35801256  0.04657794  0.65269191     0.82700
N301        N  0.36096725  0.07382828  0.65419604    -0.78000
C302        C  0.34946708  0.08101812  0.67000507     0.82800
N303        N  0.33522352  0.06074104  0.68461382    -0.79700
C304        C  0.00684668  0.63857514  0.97542680     0.80300
N305        N  0.00766714  0.61303209  0.97647411    -0.78100
C306        C  0.99522374  0.59421474  0.99213677     0.82700
N307        N  0.98172037  0.60109915  0.00675659    -0.78000
C308        C  0.98083904  0.62656494  0.00603075     0.82800
N309        N  0.99361585  0.64542349  0.99040325    -0.79700
C310        C  0.34748097  0.97540593  0.98716743     0.80300
N311        N  0.34174626  0.99055486  0.00139169    -0.78100
C312        C  0.36188821  0.00540503  0.01608837     0.82700
N313        N  0.38739924  0.00461990  0.01664744    -0.78000
C314        C  0.39305387  0.98914721  0.00278837     0.82800
N315        N  0.37310401  0.97484728  0.98801564    -0.79700
C316        C  0.02697229  0.01640799  0.15337249     0.03200
C317        C  0.01058369  0.03108189  0.15312561    -0.13000
C318        C  0.97972463  0.01560920  0.15566171     0.00700
C319        C  0.96518154  0.98465587  0.15753785    -0.11500
C320        C  0.98082072  0.96927971  0.15667871     0.03200
C321        C  0.01171385  0.98543111  0.15491351    -0.10900
H322        H  0.02195584  0.05468526  0.15071203     0.08700
H323        H  0.94165979  0.97240275  0.16017170     0.06300
H324        H  0.02390551  0.97377096  0.15484037     0.06100
C325        C  0.65463990  0.30288474  0.49320405     0.03200
C326        C  0.68556902  0.31824330  0.49219708    -0.13000
C327        C  0.70172028  0.34930600  0.49289883     0.00700
C328        C  0.68626097  0.36490153  0.49404339    -0.11500
C329        C  0.65524787  0.34993787  0.49469781     0.03200
C330        C  0.63976058  0.31889043  0.49463614    -0.10900
H331        H  0.69703681  0.30588873  0.49098031     0.08700
H332        H  0.69840769  0.38877530  0.49434931     0.06300
H333        H  0.61592875  0.30700193  0.49551940     0.06100
C334        C  0.30651723  0.65096732  0.52304271     0.03200
C335        C  0.32135438  0.68198233  0.52309358    -0.13000
C336        C  0.35229210  0.69850033  0.52107433     0.00700
C337        C  0.36809897  0.68331446  0.51949145    -0.11500
C338        C  0.35353820  0.65244092  0.52022934     0.03200
C339        C  0.32279675  0.63636044  0.52190298    -0.10900
H340        H  0.30863519  0.69308957  0.52416355     0.08700
H341        H  0.39176092  0.69535622  0.51732380     0.06300
H342        H  0.31147049  0.61243744  0.52179906     0.06100
C343        C  0.96525277  0.98797680  0.83543714     0.03200
C344        C  0.98158067  0.01903810  0.83429623    -0.13000
C345        C  0.01250033  0.03454373  0.83608874     0.00700
C346        C  0.02718529  0.01832079  0.83799029    -0.11500
C347        C  0.01156562  0.98733821  0.83812285     0.03200
C348        C  0.98063785  0.97236502  0.83744010    -0.10900
H349        H  0.97022991  0.03123487  0.83163493     0.08700
H350        H  0.05092388  0.02968911  0.83963681     0.06300
H351        H  0.96872337  0.94851449  0.83827399     0.06100
C352        C  0.36261549  0.68530602  0.81182961     0.03200
C353        C  0.34727511  0.70088587  0.81070623    -0.13000
C354        C  0.31626030  0.68617633  0.81196781     0.00700
C355        C  0.30085413  0.65507918  0.81361823    -0.11500
C356        C  0.31610179  0.63934311  0.81409818     0.03200
C357        C  0.34690015  0.65451881  0.81328084    -0.10900
H358        H  0.35987334  0.72460385  0.80890107     0.08700
H359        H  0.27712100  0.64293978  0.81524320     0.06300
H360        H  0.35863838  0.64237762  0.81437242     0.06100
C361        C  0.63100271  0.32008365  0.18561828     0.03200
C362        C  0.64596955  0.30404030  0.18584392    -0.13000
C363        C  0.67672075  0.31857106  0.18317621     0.00700
C364        C  0.69235975  0.34938117  0.18086566    -0.11500
C365        C  0.67767730  0.36554310  0.18116878     0.03200
C366        C  0.64702730  0.35089101  0.18347434    -0.10900
H367        H  0.63351631  0.28018500  0.18700537     0.08700
H368        H  0.71611332  0.36094801  0.17908098     0.06300
H369        H  0.63559684  0.36337945  0.18322671     0.06100
C370        C  0.31179217  0.00671173  0.75470365    -0.17800
C371        C  0.29507215  0.98655779  0.76972654    -0.20000
C372        C  0.27093120  0.95900120  0.76465062     0.20700
C373        C  0.26350580  0.95167591  0.74423362    -0.02900
C374        C  0.28082227  0.97168673  0.72907612    -0.05900
C375        C  0.30494079  0.99942204  0.73436913     0.21000
C376        C  0.27395405  0.96397764  0.70864552     0.19100
C377        C  0.24941846  0.93669503  0.70357853    -0.17400
C378        C  0.23184223  0.91713307  0.71861921    -0.19700
C379        C  0.23878512  0.92435687  0.73895342     0.20600
C380        C  0.22151464  0.90473304  0.75411185    -0.32700
C381        C  0.22924077  0.91164313  0.77440466     0.01300
C382        C  0.25402991  0.93866481  0.77961276    -0.24000
C383        C  0.32166904  0.01940073  0.71921859    -0.28600
C384        C  0.31521181  0.01158627  0.69891223     0.07000
C385        C  0.29157641  0.98381955  0.69366496    -0.27200
H386        H  0.33023132  0.02793973  0.75899014     0.11700
H387        H  0.30093285  0.99257427  0.78531689     0.12800
H388        H  0.24374092  0.93055288  0.68798540     0.11900
H389        H  0.21292218  0.89623449  0.71434039     0.11200
H390        H  0.20237041  0.88378879  0.75014652     0.16500
H391        H  0.25971004  0.94406694  0.79530907     0.12500
H392        H  0.33987624  0.04098809  0.72316878     0.15300
H393        H  0.28636004  0.97813937  0.67795162     0.15100
C394        C  0.06365660  0.70515834  0.74350762    -0.17800
C395        C  0.04445735  0.69033134  0.72754962    -0.20000
C396        C  0.02631993  0.70057551  0.71966565     0.20700
C397        C  0.02727843  0.72580050  0.72813135    -0.02900
C398        C  0.04688813  0.74095531  0.74400878    -0.05900
C399        C  0.06522853  0.73062728  0.75171103     0.21000
C400        C  0.04842715  0.76669665  0.75196354     0.19100
C401        C  0.02987237  0.77661238  0.74442807    -0.17400
C402        C  0.01013983  0.76135339  0.72890461    -0.19700
C403        C  0.00887524  0.73612008  0.72059039     0.20600
C404        C  0.98963368  0.72117176  0.70476079    -0.32700
C405        C  0.98883574  0.69633893  0.69602993     0.01300
C406        C  0.00730078  0.68616164  0.70345529    -0.24000
C407        C  0.08519715  0.74631422  0.76718756    -0.28600
C408        C  0.08749771  0.77254469  0.77461383     0.07000
C409        C  0.06883637  0.78239160  0.76709004    -0.27200
H410        H  0.07755689  0.69691883  0.74926459     0.11700
H411        H  0.04387686  0.67091488  0.72132236     0.12800
H412        H  0.03074922  0.79627302  0.75046028     0.11900
H413        H  0.99607639  0.76946614  0.72325450     0.11200
H414        H  0.97555110  0.72920996  0.69898620     0.16500
H415        H  0.00649880  0.66683256  0.69684818     0.12500
H416        H  0.09961527  0.73869605  0.77296742     0.15300
H417        H  0.07029284  0.80240687  0.77297806     0.15100
C418        C  0.31238542  0.92654131  0.90089267    -0.17800
C419        C  0.33099251  0.93964330  0.91735700    -0.20000
C420        C  0.31971257  0.94344225  0.93551123     0.20700
C421        C  0.28941759  0.93394001  0.93716433    -0.02900
C422        C  0.27059794  0.92054396  0.92057313    -0.05900
C423        C  0.28219700  0.91694893  0.90235070     0.21000
C424        C  0.24023436  0.91078886  0.92221798     0.19100
C425        C  0.22897266  0.91447551  0.94043515    -0.17400
C426        C  0.24768639  0.92798635  0.95684537    -0.19700
C427        C  0.27795083  0.93788504  0.95535628     0.20600
C428        C  0.29696003  0.95165339  0.97169388    -0.32700
C429        C  0.32714363  0.96098622  0.97013478     0.01300
C430        C  0.33826683  0.95666731  0.95200930    -0.24000
C431        C  0.26343280  0.90376724  0.88590356    -0.28600
C432        C  0.23310551  0.89393304  0.88737885     0.07000
C433        C  0.22168081  0.89750535  0.90563510    -0.27200
H434        H  0.32161098  0.92389232  0.88701320     0.11700
H435        H  0.35423433  0.94687183  0.91587759     0.12800
H436        H  0.20568902  0.90701685  0.94196683     0.11900
H437        H  0.23847883  0.93070464  0.97071009     0.11200
H438        H  0.28824116  0.95478139  0.98566054     0.16500
H439        H  0.36156286  0.96403581  0.95060462     0.12500
H440        H  0.27248420  0.90097553  0.87198155     0.15300
H441        H  0.19832912  0.88986619  0.90699309     0.15100
C442        C  0.05884934  0.75584231  0.92790149    -0.17800
C443        C  0.04325508  0.73585695  0.94326360    -0.20000
C444        C  0.03900396  0.70716677  0.94281758     0.20700
C445        C  0.05013782  0.69834879  0.92657829    -0.02900
C446        C  0.06576195  0.71846131  0.91104947    -0.05900
C447        C  0.07034129  0.74740707  0.91183994     0.21000
C448        C  0.07716715  0.70974391  0.89491525     0.19100
C449        C  0.07257392  0.68093106  0.89432871    -0.17400
C450        C  0.05715698  0.66101065  0.90976806    -0.19700
C451        C  0.04607801  0.66959452  0.92600347     0.20600
C452        C  0.03144977  0.65008032  0.94183437    -0.32700
C453        C  0.02081998  0.65888235  0.95829968     0.01300
C454        C  0.02428631  0.68733880  0.95851050    -0.24000
C455        C  0.08666894  0.76754397  0.89670349    -0.28600
C456        C  0.09846972  0.75916610  0.88072551     0.07000
C457        C  0.09333185  0.73010913  0.87980772    -0.27200
H458        H  0.06213492  0.77799316  0.92867045     0.11700
H459        H  0.03480084  0.74293741  0.95560388     0.12800
H460        H  0.08114986  0.67389811  0.88203583     0.11900
H461        H  0.05413530  0.63895448  0.90910359     0.11200
H462        H  0.02866590  0.62810162  0.94139372     0.16500
H463        H  0.01612720  0.69433836  0.97107911     0.12500
H464        H  0.09036978  0.78985823  0.89747923     0.15300
H465        H  0.10236941  0.72347591  0.86756113     0.15100
C466        C  0.22627765  0.69341339  0.80009439    -0.17800
C467        C  0.21101819  0.70896538  0.80147626    -0.20000
C468        C  0.22511003  0.73798293  0.80884928     0.20700
C469        C  0.25491055  0.75151059  0.81483687    -0.02900
C470        C  0.27014384  0.73559758  0.81378593    -0.05900
C471        C  0.25579555  0.70646745  0.80631600     0.21000
C472        C  0.29960045  0.74874007  0.82041410     0.19100
C473        C  0.31382824  0.77789868  0.82755725    -0.17400
C474        C  0.29892486  0.79385683  0.82826158    -0.19700
C475        C  0.26938683  0.78078801  0.82209147     0.20600
C476        C  0.25395546  0.79630613  0.82336812    -0.32700
C477        C  0.22399935  0.78270243  0.81790861     0.01300
C478        C  0.20983179  0.75356626  0.81055155    -0.24000
C479        C  0.27109171  0.69080396  0.80528033    -0.28600
C480        C  0.30035072  0.70337019  0.81232590     0.07000
C481        C  0.31423661  0.73243643  0.82001244    -0.27200
H482        H  0.21488837  0.67104989  0.79435555     0.11700
H483        H  0.18813326  0.69825415  0.79678923     0.12800
H484        H  0.33653776  0.78839407  0.83262899     0.11900
H485        H  0.31038548  0.81628813  0.83386049     0.11200
H486        H  0.26503664  0.81866255  0.82914060     0.16500
H487        H  0.18680501  0.74292513  0.80618402     0.12500
H488        H  0.26007913  0.66885003  0.79888529     0.15300
H489        H  0.33634327  0.74244368  0.82611780     0.15100
C490        C  0.10623890  0.95738705  0.80996563    -0.17800
C491        C  0.09068609  0.97265966  0.81056932    -0.20000
C492        C  0.06731212  0.96425092  0.82410767     0.20700
C493        C  0.05954363  0.94027199  0.83724141    -0.02900
C494        C  0.07554582  0.92509420  0.83683058    -0.05900
C495        C  0.09884534  0.93360776  0.82300906     0.21000
C496        C  0.06818627  0.90138834  0.85016312     0.19100
C497        C  0.04458555  0.89283707  0.86357004    -0.17400
C498        C  0.02846197  0.90764371  0.86379109    -0.19700
C499        C  0.03579848  0.93144692  0.85073278     0.20600
C500        C  0.01993653  0.94664956  0.85093785    -0.32700
C501        C  0.02788608  0.97084733  0.83804160     0.01300
C502        C  0.05157576  0.97941095  0.82468055    -0.24000
C503        C  0.11426126  0.91811603  0.82235959    -0.28600
C504        C  0.10725551  0.89462585  0.83564408     0.07000
C505        C  0.08439922  0.88655167  0.84968974    -0.27200
H506        H  0.12410417  0.96421204  0.79929988     0.11700
H507        H  0.09687904  0.99100832  0.80037763     0.12800
H508        H  0.03851250  0.87460594  0.87384335     0.11900
H509        H  0.01030772  0.90053723  0.87424092     0.11200
H510        H  0.00176550  0.94001264  0.86132197     0.16500
H511        H  0.05750220  0.99772623  0.81448625     0.12500
H512        H  0.13192919  0.92446899  0.81156905     0.15300
H513        H  0.07872770  0.86823193  0.85981877     0.15100
C514        C  0.12208319  0.10463973  0.17181125    -0.17800
C515        C  0.15290031  0.11971102  0.17264683    -0.20000
C516        C  0.16876248  0.10711537  0.16445818     0.20700
C517        C  0.15345095  0.07926040  0.15504452    -0.02900
C518        C  0.12233884  0.06426287  0.15391329    -0.05900
C519        C  0.10659989  0.07686375  0.16255348     0.21000
C520        C  0.10700446  0.03651426  0.14438442     0.19100
C521        C  0.12290887  0.02404726  0.13603705    -0.17400
C522        C  0.15370010  0.03868383  0.13742544    -0.19700
C523        C  0.16917346  0.06621803  0.14699719     0.20600
C524        C  0.20002866  0.08078790  0.14883593    -0.32700
C525        C  0.21542283  0.10852186  0.15827176     0.01300
C526        C  0.19961691  0.12169573  0.16578013    -0.24000
C527        C  0.07566114  0.06130365  0.16211336    -0.28600
C528        C  0.05998554  0.03344512  0.15274649     0.07000
C529        C  0.07605654  0.02154655  0.14359201    -0.27200
H530        H  0.11034562  0.11467648  0.17847239     0.11700
H531        H  0.16432239  0.14109039  0.17992749     0.12800
H532        H  0.11149009  0.00274279  0.12864561     0.11900
H533        H  0.16540321  0.02840950  0.13108540     0.11200
H534        H  0.21206902  0.07063131  0.14284706     0.16500
H535        H  0.21129281  0.14301704  0.17313924     0.12500
H536        H  0.06385050  0.07065898  0.16958490     0.15300
H537        H  0.06455615  0.00052059  0.13587962     0.15100
C538        C  0.29789338  0.01927883  0.06412516    -0.17800
C539        C  0.29478961  0.03465943  0.08025784    -0.20000
C540        C  0.31913937  0.06069585  0.08740615     0.20700
C541        C  0.34682293  0.07156293  0.07804026    -0.02900
C542        C  0.35003827  0.05585692  0.06195249    -0.05900
C543        C  0.32545615  0.02953017  0.05497962     0.21000
C544        C  0.37796176  0.06625322  0.05308081     0.19100
C545        C  0.40217494  0.09264739  0.05987185    -0.17400
C546        C  0.39888267  0.10844871  0.07559196    -0.19700
C547        C  0.37139315  0.09794226  0.08489009     0.20600
C548        C  0.36811447  0.11326274  0.10100388    -0.32700
C549        C  0.34072299  0.10234086  0.11064773     0.01300
C550        C  0.31633070  0.07600727  0.10377669    -0.24000
C551        C  0.32906164  0.01362213  0.03931466    -0.28600
C552        C  0.35709599  0.02332078  0.03104942     0.07000
C553        C  0.38132987  0.04978636  0.03783779    -0.27200
H554        H  0.27880093  0.99913743  0.05897318     0.11700
H555        H  0.27334721  0.02610949  0.08720863     0.12800
H556        H  0.42371204  0.10096222  0.05311697     0.11900
H557        H  0.41792893  0.12871219  0.08064147     0.11200
H558        H  0.38702353  0.13354588  0.10620662     0.16500
H559        H  0.29506615  0.06766413  0.11097757     0.12500
H560        H  0.31038848  0.99314761  0.03412302     0.15300
H561        H  0.40292322  0.05747382  0.03129802     0.15100
C562        C  0.30511295  0.27993687  0.06406703    -0.17800
C563        C  0.29993963  0.26073295  0.08020866    -0.20000
C564        C  0.32348795  0.25981946  0.08962046     0.20700
C565        C  0.35254029  0.27853211  0.08273084    -0.02900
C566        C  0.35777888  0.29813187  0.06667828    -0.05900
C567        C  0.33394529  0.29871776  0.05718591     0.21000
C568        C  0.38691806  0.31709726  0.06011017     0.19100
C569        C  0.41046745  0.31613145  0.06939336    -0.17400
C570        C  0.40524294  0.29639938  0.08506509    -0.19700
C571        C  0.37642092  0.27758585  0.09180621     0.20600
C572        C  0.37111909  0.25768658  0.10738393    -0.32700
C573        C  0.34235010  0.23899371  0.11432932     0.01300
C574        C  0.31858424  0.24035214  0.10562498    -0.24000
C575        C  0.33946423  0.31813540  0.04104083    -0.28600
C576        C  0.36855535  0.33733061  0.03468296     0.07000
C577        C  0.39208411  0.33671424  0.04434150    -0.27200
H578        H  0.28656993  0.28014186  0.05699145     0.11700
H579        H  0.27750399  0.24647424  0.08525279     0.12800
H580        H  0.43293974  0.33055134  0.06445703     0.11900
H581        H  0.42375014  0.29587406  0.09193578     0.11200
H582        H  0.38948583  0.25677495  0.11419214     0.16500
H583        H  0.29633695  0.22570506  0.11088917     0.12500
H584        H  0.32127750  0.31873841  0.03370268     0.15300
H585        H  0.41452853  0.35131392  0.03938125     0.15100
C586        C  0.26266491  0.99105488  0.25345616    -0.17800
C587        C  0.26619790  0.01003649  0.23757799    -0.20000
C588        C  0.29117935  0.03827906  0.23666306     0.20700
C589        C  0.31286756  0.04745469  0.25187074    -0.02900
C590        C  0.30933641  0.02828574  0.26786164    -0.05900
C591        C  0.28408153  0.00003161  0.26863663     0.21000
C592        C  0.33094719  0.03747365  0.28312621     0.19100
C593        C  0.35594202  0.06571595  0.28218258    -0.17400
C594        C  0.35939857  0.08478534  0.26636110    -0.19700
C595        C  0.33794769  0.07587672  0.25121378     0.20600
C596        C  0.34097595  0.09504683  0.23555950    -0.32700
C597        C  0.31932910  0.08620345  0.22047174     0.01300
C598        C  0.29465607  0.05765166  0.22097416    -0.24000
C599        C  0.28053088  0.98125028  0.28464029    -0.28600
C600        C  0.30183021  0.99020117  0.30003313     0.07000
C601        C  0.32708188  0.01834923  0.29911421    -0.27200
H602        H  0.24312563  0.96937343  0.25389971     0.11700
H603        H  0.24932340  0.00268267  0.22607022     0.12800
H604        H  0.37274441  0.07312184  0.29374322     0.11900
H605        H  0.37879780  0.10657352  0.26602096     0.11200
H606        H  0.36016005  0.11700673  0.23521809     0.16500
H607        H  0.27780506  0.05078557  0.20947047     0.12500
H608        H  0.26092902  0.95960861  0.28507726     0.15300
H609        H  0.34361788  0.02545545  0.31085200     0.15100
C610        C  0.26955014  0.25500044  0.23721463    -0.17800
C611        C  0.26433505  0.26918654  0.25311941    -0.20000
C612        C  0.28012612  0.27465760  0.27115983     0.20700
C613        C  0.30143537  0.26586246  0.27323212    -0.02900
C614        C  0.30660043  0.25141459  0.25720654    -0.05900
C615        C  0.29058760  0.24601491  0.23912399     0.21000
C616        C  0.32766976  0.24228876  0.25930872     0.19100
C617        C  0.34347015  0.24781310  0.27736389    -0.17400
C618        C  0.33846404  0.26230063  0.29322282    -0.19700
C619        C  0.31748805  0.27139269  0.29132261     0.20600
C620        C  0.31211960  0.28571058  0.30721556    -0.32700
C621        C  0.29061929  0.29418750  0.30531850     0.01300
C622        C  0.27482700  0.28864331  0.28718643    -0.24000
C623        C  0.29575440  0.23160118  0.22328459    -0.28600
C624        C  0.31659571  0.22227362  0.22526288     0.07000
C625        C  0.33248290  0.22771921  0.24335111    -0.27200
H626        H  0.25706072  0.25097912  0.22343424     0.11700
H627        H  0.24790632  0.27584190  0.25132137     0.12800
H628        H  0.35971356  0.24092457  0.27922204     0.11900
H629        H  0.35093797  0.26630701  0.30700878     0.11200
H630        H  0.32431967  0.28980195  0.32114501     0.16500
H631        H  0.25837589  0.29529688  0.28546519     0.12500
H632        H  0.28326912  0.22738053  0.20947573     0.15300
H633        H  0.34858120  0.22059756  0.24504981     0.15100
C634        C  0.53887599  0.29352215  0.14999394    -0.17800
C635        C  0.50818315  0.27716535  0.14857732    -0.20000
C636        C  0.49136905  0.25884654  0.16445361     0.20700
C637        C  0.50551688  0.25718093  0.18205304    -0.02900
C638        C  0.53657336  0.27340656  0.18338006    -0.05900
C639        C  0.55325117  0.29162425  0.16723965     0.21000
C640        C  0.55093302  0.27108320  0.20068569     0.19100
C641        C  0.53400021  0.25319262  0.21672217    -0.17400
C642        C  0.50314511  0.23742429  0.21551947    -0.19700
C643        C  0.48868078  0.23903670  0.19817881     0.20600
C644        C  0.45776437  0.22255128  0.19651622    -0.32700
C645        C  0.44364574  0.22355475  0.17874433     0.01300
C646        C  0.46066679  0.24193617  0.16288731    -0.24000
C647        C  0.58404107  0.30730267  0.16847324    -0.28600
C648        C  0.59848436  0.30452213  0.18538688     0.07000
C649        C  0.58192463  0.28643343  0.20148523    -0.27200
H650        H  0.55140497  0.30741309  0.13749333     0.11700
H651        H  0.49758754  0.27872833  0.13500172     0.12800
H652        H  0.54462505  0.25127357  0.23016146     0.11900
H653        H  0.49060590  0.22367138  0.22806332     0.11200
H654        H  0.44479080  0.20844451  0.20881140     0.16500
H655        H  0.44997118  0.24315861  0.14924584     0.12500
H656        H  0.59692271  0.32113248  0.15602960     0.15300
H657        H  0.59318899  0.28443627  0.21455502     0.15100
C658        C  0.32348786  0.17643875  0.70294175    -0.17800
C659        C  0.32786275  0.15216633  0.70388599    -0.20000
C660        C  0.33726878  0.14333775  0.68685364     0.20700
C661        C  0.34251702  0.15922965  0.66874022    -0.02900
C662        C  0.33793644  0.18356888  0.66775754    -0.05900
C663        C  0.32840235  0.19224090  0.68494785     0.21000
C664        C  0.34290913  0.19920338  0.64956674     0.19100
C665        C  0.35234744  0.19044576  0.63253895    -0.17400
C666        C  0.35695263  0.16638220  0.63352703    -0.19700
C667        C  0.35206364  0.15064264  0.65152603     0.20600
C668        C  0.35584110  0.12601433  0.65243303    -0.32700
C669        C  0.34958191  0.10935095  0.67018713     0.01300
C670        C  0.34084273  0.11849745  0.68746942    -0.24000
C671        C  0.32433956  0.21677405  0.68389299    -0.28600
C672        C  0.32991022  0.23285072  0.66589959     0.07000
C673        C  0.33875345  0.22358610  0.64874188    -0.27200
H674        H  0.31622229  0.18283288  0.71629141     0.11700
H675        H  0.32374364  0.14020602  0.71790836     0.12800
H676        H  0.35624117  0.20225886  0.61847046     0.11900
H677        H  0.36417624  0.15996641  0.62016346     0.11200
H678        H  0.36249819  0.11915096  0.63900355     0.16500
H679        H  0.33613317  0.10590282  0.70126290     0.12500
H680        H  0.31751308  0.22371478  0.69720362     0.15300
H681        H  0.34287615  0.23561411  0.63473777     0.15100
C682        C  0.03723714  0.16195123  0.85341243    -0.17800
C683        C  0.02105911  0.13106101  0.85304730    -0.20000
C684        C  0.03330603  0.11485541  0.84484957     0.20700
C685        C  0.06212712  0.12994154  0.83694038    -0.02900
C686        C  0.07861914  0.16110181  0.83757221    -0.05900
C687        C  0.06607050  0.17718611  0.84578799     0.21000
C688        C  0.10766445  0.17612061  0.83001640     0.19100
C689        C  0.11981212  0.15994593  0.82165343    -0.17400
C690        C  0.10334157  0.12912718  0.82079140    -0.19700
C691        C  0.07453956  0.11392393  0.82845012     0.20600
C692        C  0.05802572  0.08300059  0.82779924    -0.32700
C693        C  0.02943026  0.06756855  0.83604293     0.01300
C694        C  0.01731527  0.08385766  0.84456513    -0.24000
C695        C  0.08259303  0.20817587  0.84627429    -0.28600
C696        C  0.11171910  0.22331253  0.83897128     0.07000
C697        C  0.12406408  0.20703620  0.83091186    -0.27200
H698        H  0.02724038  0.17392902  0.85977478     0.11700
H699        H  0.99892845  0.11984110  0.85914926     0.12800
H700        H  0.14205440  0.17114223  0.81574143     0.11900
H701        H  0.11322435  0.11715636  0.81423722     0.11200
H702        H  0.06752207  0.07102214  0.82072902     0.16500
H703        H  0.99560965  0.07248340  0.85131830     0.12500
H704        H  0.07287089  0.22048948  0.85252331     0.15300
H705        H  0.14635421  0.21845233  0.82505903     0.15100
C706        C  0.06950181  0.36627081  0.72515572    -0.17800
C707        C  0.08958463  0.37051503  0.74047278    -0.20000
C708        C  0.08165765  0.34987253  0.75610380     0.20700
C709        C  0.05294403  0.32517502  0.75664365    -0.02900
C710        C  0.03274749  0.32082384  0.74114003    -0.05900
C711        C  0.04120320  0.34126064  0.72517015     0.21000
C712        C  0.00439194  0.29561376  0.74135456     0.19100
C713        C  0.99614876  0.27541305  0.75728727    -0.17400
C714        C  0.01610969  0.27978012  0.77268322    -0.19700
C715        C  0.04464186  0.30438495  0.77237740     0.20600
C716        C  0.06523738  0.30812710  0.78723016    -0.32700
C717        C  0.09422590  0.33206416  0.78636557     0.01300
C718        C  0.10214559  0.35309295  0.77091429    -0.24000
C719        C  0.02154014  0.33588776  0.70923120    -0.28600
C720        C  0.99359844  0.31019721  0.70896909     0.07000
C721        C  0.98502215  0.29055682  0.72536997    -0.27200
H722        H  0.07631049  0.38228101  0.71308254     0.11700
H723        H  0.11148039  0.38970606  0.73992081     0.12800
H724        H  0.97440456  0.25598451  0.75767936     0.11900
H725        H  0.00937803  0.26363897  0.78466708     0.11200
H726        H  0.05899201  0.29178896  0.79905226     0.16500
H727        H  0.12438333  0.37175817  0.77025669     0.12500
H728        H  0.02834252  0.35132324  0.69679653     0.15300
H729        H  0.96349036  0.27081273  0.72551904     0.15100
C730        C  0.26592554  0.34457691  0.70825954    -0.17800
C731        C  0.25185263  0.34969768  0.72434609    -0.20000
C732        C  0.25056195  0.33730639  0.74331065     0.20700
C733        C  0.26389178  0.31986251  0.74615012    -0.02900
C734        C  0.27795796  0.31457637  0.72990426    -0.05900
C735        C  0.27888485  0.32689464  0.71083800     0.21000
C736        C  0.29065208  0.29655302  0.73268464     0.19100
C737        C  0.28984530  0.28458178  0.75170446    -0.17400
C738        C  0.27605046  0.28993291  0.76780410    -0.19700
C739        C  0.26274905  0.30726942  0.76513059     0.20600
C740        C  0.24787958  0.31175051  0.78102814    -0.32700
C741        C  0.23393216  0.32856673  0.77825807     0.01300
C742        C  0.23575400  0.34161263  0.75937953    -0.24000
C743        C  0.29227239  0.32086732  0.69463910    -0.28600
C744        C  0.30418052  0.30219075  0.69721895     0.07000
C745        C  0.30351440  0.29039519  0.71634306    -0.27200
H746        H  0.26640287  0.35419621  0.69374732     0.11700
H747        H  0.24174915  0.36317517  0.72190229     0.12800
H748        H  0.29963651  0.27080920  0.75408687     0.11900
H749        H  0.27546146  0.28019861  0.78229352     0.11200
H750        H  0.24679381  0.30171381  0.79549044     0.16500
H751        H  0.22515662  0.35466396  0.75704443     0.12500
H752        H  0.29263622  0.32996451  0.67993413     0.15300
H753        H  0.31295021  0.27625428  0.71852023     0.15100
C754        C  0.31190167  0.40514121  0.91474299    -0.17800
C755        C  0.33015871  0.40956729  0.93118202    -0.20000
C756        C  0.32673596  0.38546777  0.94253220     0.20700
C757        C  0.30507488  0.35653838  0.93716662    -0.02900
C758        C  0.28679298  0.35203206  0.92040517    -0.05900
C759        C  0.29007318  0.37654666  0.90936886     0.21000
C760        C  0.26494240  0.32316814  0.91491338     0.19100
C761        C  0.26185703  0.29907639  0.92622290    -0.17400
C762        C  0.27993022  0.30357976  0.94297193    -0.19700
C763        C  0.30149914  0.33224654  0.94865666     0.20600
C764        C  0.31959381  0.33716744  0.96555922    -0.32700
C765        C  0.34137212  0.36606445  0.97080679     0.01300
C766        C  0.34465643  0.38996741  0.95919072    -0.24000
C767        C  0.27098730  0.37221369  0.89344888    -0.28600
C768        C  0.24867499  0.34374732  0.88818292     0.07000
C769        C  0.24614215  0.31913337  0.89858108    -0.27200
H770        H  0.31467163  0.42412426  0.90633494     0.11700
H771        H  0.34679595  0.43188487  0.93513663     0.12800
H772        H  0.24522948  0.27676784  0.92226007     0.11900
H773        H  0.27693574  0.28464613  0.95153566     0.11200
H774        H  0.31709743  0.31860390  0.97435836     0.16500
H775        H  0.36120582  0.41233306  0.96315982     0.12500
H776        H  0.27312769  0.39117707  0.88530631     0.15300
H777        H  0.22879349  0.29714034  0.89457671     0.15100
C778        C  0.25798373  0.53942926  0.78541767    -0.17800
C779        C  0.24450062  0.50875266  0.78743479    -0.20000
C780        C  0.24469890  0.49604857  0.80598578     0.20700
C781        C  0.25878363  0.51444734  0.82265337    -0.02900
C782        C  0.27254517  0.54541041  0.82059674    -0.05900
C783        C  0.27199800  0.55793949  0.80189711     0.21000
C784        C  0.28688079  0.56381009  0.83723577     0.19100
C785        C  0.28717703  0.55112986  0.85576232    -0.17400
C786        C  0.27330420  0.52044612  0.85783768    -0.19700
C787        C  0.25905807  0.50193163  0.84139178     0.20600
C788        C  0.24495787  0.47113671  0.84339610    -0.32700
C789        C  0.23067504  0.45256998  0.82688856     0.01300
C790        C  0.23087564  0.46528127  0.80818374    -0.24000
C791        C  0.28564594  0.58873999  0.80000309    -0.28600
C792        C  0.30013739  0.60702861  0.81647727     0.07000
C793        C  0.30078568  0.59454995  0.83501139    -0.27200
H794        H  0.25746565  0.54868362  0.77095096     0.11700
H795        H  0.23380309  0.49494206  0.77448537     0.12800
H796        H  0.29808379  0.56494816  0.86866581     0.11900
H797        H  0.27373448  0.51118627  0.87232585     0.11200
H798        H  0.24504018  0.46164230  0.85786932     0.16500
H799        H  0.21989822  0.45123796  0.79537362     0.12500
H800        H  0.28552575  0.59857149  0.78567433     0.15300
H801        H  0.31219412  0.60885615  0.84763464     0.15100
C802        C  0.55947640  0.17699838  0.51960263    -0.17800
C803        C  0.57506915  0.20786404  0.51966169    -0.20000
C804        C  0.59814013  0.22349027  0.50599942     0.20700
C805        C  0.60531151  0.20787893  0.49193673    -0.02900
C806        C  0.58933454  0.17671049  0.49171677    -0.05900
C807        C  0.56656707  0.16125603  0.50578479     0.21000
C808        C  0.59637797  0.16103728  0.47759491     0.19100
C809        C  0.61934944  0.17670416  0.46386831    -0.17400
C810        C  0.63537809  0.20759532  0.46421893    -0.19700
C811        C  0.62860095  0.22338053  0.47822062     0.20600
C812        C  0.64472715  0.25436137  0.47878213    -0.32700
C813        C  0.63771807  0.27008269  0.49276699     0.01300
C814        C  0.61428961  0.25443207  0.50626284    -0.24000
C815        C  0.55157127  0.13033656  0.50598817    -0.28600
C816        C  0.55861512  0.11456370  0.49208894     0.07000
C817        C  0.58066569  0.13001430  0.47768834    -0.27200
H818        H  0.54196228  0.16543189  0.53043947     0.11700
H819        H  0.56924564  0.21952017  0.53052111     0.12800
H820        H  0.62510044  0.16504989  0.45296058     0.11900
H821        H  0.65315036  0.21915291  0.45355672     0.11200
H822        H  0.66249662  0.26628687  0.46816522     0.16500
H823        H  0.60894543  0.26637377  0.51721189     0.12500
H824        H  0.53439056  0.11847611  0.51701404     0.15300
H825        H  0.58625404  0.11790737  0.46703630     0.15100
C826        C  0.36098070  0.97600131  0.60411268    -0.17800
C827        C  0.37385202  0.97045480  0.58744030    -0.20000
C828        C  0.39855796  0.99360512  0.57795093     0.20700
C829        C  0.41009079  0.02269984  0.58523621    -0.02900
C830        C  0.39695782  0.02832180  0.60190088    -0.05900
C831        C  0.37244359  0.00483400  0.61153113     0.21000
C832        C  0.40858213  0.05746361  0.60902027     0.19100
C833        C  0.43313084  0.08067880  0.59954125    -0.17400
C834        C  0.44632163  0.07507969  0.58322573    -0.19700
C835        C  0.43505373  0.04620451  0.57605994     0.20600
C836        C  0.44878118  0.04044826  0.56012866    -0.32700
C837        C  0.43797552  0.01154626  0.55299967     0.01300
C838        C  0.41239892  0.98821316  0.56164735    -0.24000
C839        C  0.35991832  0.01066196  0.62837543    -0.28600
C840        C  0.37131519  0.03976841  0.63537864     0.07000
C841        C  0.39558308  0.06297024  0.62554585    -0.27200
H842        H  0.34209946  0.95770586  0.61124721     0.11700
H843        H  0.36466481  0.94798433  0.58210387     0.12800
H844        H  0.44228207  0.10316180  0.60484977     0.11900
H845        H  0.46547045  0.09333193  0.57627959     0.11200
H846        H  0.46828741  0.05857612  0.55337954     0.16500
H847        H  0.40405613  0.96587166  0.55625662     0.12500
H848        H  0.34108082  0.99269263  0.63580472     0.15300
H849        H  0.40466473  0.08542707  0.63092554     0.15100
C850        C  0.42858670  0.02634103  0.39548119    -0.17800
C851        C  0.40851246  0.02153040  0.37999328    -0.20000
C852        C  0.38022623  0.99646594  0.38017720     0.20700
C853        C  0.37200108  0.97629323  0.39629737    -0.02900
C854        C  0.39215248  0.98119587  0.41193050    -0.05900
C855        C  0.42067617  0.00621833  0.41146072     0.21000
C856        C  0.38379197  0.96084967  0.42793339     0.19100
C857        C  0.35550861  0.93591914  0.42825080    -0.17400
C858        C  0.33561851  0.93101602  0.41275368    -0.19700
C859        C  0.34372247  0.95099374  0.39671983     0.20600
C860        C  0.32406954  0.94576284  0.38098111    -0.32700
C861        C  0.33212679  0.96531948  0.36459940     0.01300
C862        C  0.36016696  0.99091818  0.36442989    -0.24000
C863        C  0.44076109  0.01051821  0.42691716    -0.28600
C864        C  0.43245309  0.99024721  0.44291247     0.07000
C865        C  0.40388164  0.96559789  0.44330320    -0.27200
H866        H  0.45034353  0.04572230  0.39491121     0.11700
H867        H  0.41521382  0.03729968  0.36777286     0.12800
H868        H  0.34881388  0.92010244  0.44044666     0.11900
H869        H  0.31394581  0.91149484  0.41324403     0.11200
H870        H  0.30248723  0.92610135  0.38146430     0.16500
H871        H  0.36659829  0.00619201  0.35191740     0.12500
H872        H  0.46273489  0.02962568  0.42653942     0.15300
H873        H  0.39734034  0.94972388  0.45546550     0.15100
C874        C  0.35802321  0.79125816  0.49738123    -0.17800
C875        C  0.37359597  0.82198689  0.49523445    -0.20000
C876        C  0.40228160  0.83872670  0.50293716     0.20700
C877        C  0.41541946  0.82436484  0.51290910    -0.02900
C878        C  0.39954166  0.79338938  0.51531741    -0.05900
C879        C  0.37076838  0.77675829  0.50743559     0.21000
C880        C  0.41251160  0.77909379  0.52555183     0.19100
C881        C  0.44126721  0.79580357  0.53315057    -0.17400
C882        C  0.45713751  0.82643808  0.53054290    -0.19700
C883        C  0.44441486  0.84092820  0.52046961     0.20600
C884        C  0.46012589  0.87167985  0.51790935    -0.32700
C885        C  0.44701397  0.88620692  0.50826985     0.01300
C886        C  0.41804794  0.86954926  0.50085708    -0.24000
C887        C  0.35535450  0.74591693  0.50954604    -0.28600
C888        C  0.36811790  0.73138090  0.51970818     0.07000
C889        C  0.39662346  0.74833345  0.52789467    -0.27200
H890        H  0.33597310  0.77883613  0.49122012     0.11700
H891        H  0.36321194  0.83266356  0.48748216     0.12800
H892        H  0.45157020  0.78514732  0.54101598     0.11900
H893        H  0.47934419  0.83881545  0.53646880     0.11200
H894        H  0.48237967  0.88437101  0.52373821     0.16500
H895        H  0.40787519  0.88056239  0.49325267     0.12500
H896        H  0.33369397  0.73324044  0.50284120     0.15300
H897        H  0.40656243  0.73760223  0.53610042     0.15100
C898        C  0.16832749  0.85776828  0.30372620    -0.17800
C899        C  0.14249209  0.83040903  0.30288642    -0.20000
C900        C  0.13877453  0.80738924  0.31558912     0.20700
C901        C  0.16127245  0.81186222  0.32924682    -0.02900
C902        C  0.18734708  0.83947761  0.33009677    -0.05900
C903        C  0.19080524  0.86247390  0.31726560     0.21000
C904        C  0.20985613  0.84410823  0.34381038     0.19100
C905        C  0.20614187  0.82099569  0.35644918    -0.17400
C906        C  0.18022474  0.79356964  0.35561840    -0.19700
C907        C  0.15763137  0.78884240  0.34213980     0.20600
C908        C  0.13132980  0.76164373  0.34147004    -0.32700
C909        C  0.10867121  0.75719302  0.32804507     0.01300
C910        C  0.11275893  0.78009989  0.31500823    -0.24000
C911        C  0.21667678  0.88981745  0.31816061    -0.28600
C912        C  0.23924454  0.89467500  0.33174839     0.07000
C913        C  0.23565676  0.87174774  0.34460824    -0.27200
H914        H  0.17071547  0.87527416  0.29379626     0.11700
H915        H  0.12536971  0.82728272  0.29235428     0.12800
H916        H  0.22323620  0.82415838  0.36701686     0.11900
H917        H  0.17778993  0.77609348  0.36559206     0.11200
H918        H  0.12844869  0.74405633  0.35151056     0.16500
H919        H  0.09544694  0.77696511  0.30463760     0.12500
H920        H  0.21912622  0.90739033  0.30826364     0.15300
H921        H  0.25300094  0.87528246  0.35507359     0.15100
C922        C  0.89542555  0.87188006  0.13854495    -0.17800
C923        C  0.88087515  0.84099227  0.13894817    -0.20000
C924        C  0.89357607  0.82627816  0.14877934     0.20700
C925        C  0.92120099  0.84288504  0.15832374    -0.02900
C926        C  0.93567042  0.87404266  0.15816479    -0.05900
C927        C  0.92278605  0.88859957  0.14814589     0.21000
C928        C  0.96303915  0.89058786  0.16800298     0.19100
C929        C  0.97577195  0.87589928  0.17781080    -0.17400
C930        C  0.96164182  0.84506806  0.17774489    -0.19700
C931        C  0.93440379  0.82838389  0.16803587     0.20600
C932        C  0.92012006  0.79746731  0.16794222    -0.32700
C933        C  0.89244735  0.78074397  0.15869757     0.01300
C934        C  0.87919534  0.79529234  0.14924207    -0.24000
C935        C  0.93755313  0.91958764  0.14779691    -0.28600
C936        C  0.96490772  0.93635087  0.15758607     0.07000
C937        C  0.97728233  0.92152058  0.16782635    -0.27200
H938        H  0.88521747  0.88270007  0.13077238     0.11700
H939        H  0.85972609  0.82860900  0.13149992     0.12800
H940        H  0.99677349  0.88827421  0.18543786     0.11900
H941        H  0.97200811  0.83425737  0.18533734     0.11200
H942        H  0.93028513  0.78636533  0.17543740     0.16500
H943        H  0.85789495  0.78249595  0.14203155     0.12500
H944        H  0.92793868  0.93064000  0.13959677     0.15300
H945        H  0.99798466  0.93401846  0.17578018     0.15100
C946        C  0.89334368  0.59581739  0.07574507    -0.17800
C947        C  0.90581398  0.59088948  0.05876395    -0.20000
C948        C  0.92934665  0.61461770  0.04889107     0.20700
C949        C  0.94040210  0.64366675  0.05604285    -0.02900
C950        C  0.92798380  0.64862030  0.07333905    -0.05900
C951        C  0.90432334  0.62452524  0.08312583     0.21000
C952        C  0.93914389  0.67756330  0.08081141     0.19100
C953        C  0.96255328  0.70129036  0.07072907    -0.17400
C954        C  0.97479958  0.69638180  0.05345342    -0.19700
C955        C  0.96394300  0.66764717  0.04601387     0.20600
C956        C  0.97648090  0.66228663  0.02899761    -0.32700
C957        C  0.96608322  0.63319790  0.02233981     0.01300
C958        C  0.94230238  0.60962986  0.03218797    -0.24000
C959        C  0.89168779  0.62948247  0.10000046    -0.28600
C960        C  0.90222094  0.65816581  0.10741478     0.07000
C961        C  0.92632898  0.68217453  0.09801074    -0.27200
H962        H  0.87512067  0.57715322  0.08313420     0.11700
H963        H  0.89711469  0.56849801  0.05338558     0.12800
H964        H  0.97135076  0.72365202  0.07617616     0.11900
H965        H  0.99288484  0.71505262  0.04597891     0.11200
H966        H  0.99494814  0.68050142  0.02144289     0.16500
H967        H  0.93403482  0.58721736  0.02693858     0.12500
H968        H  0.87325612  0.61086350  0.10730408     0.15300
H969        H  0.93434057  0.70435253  0.10361426     0.15100
C970        C  0.73330189  0.64874451  0.28720789    -0.17800
C971        C  0.74826700  0.64451038  0.27129194    -0.20000
C972        C  0.75422065  0.66110452  0.25355218     0.20700
C973        C  0.74499946  0.68215816  0.25182676    -0.02900
C974        C  0.73011832  0.68657769  0.26791661    -0.05900
C975        C  0.72415413  0.66974933  0.28568605     0.21000
C976        C  0.72131776  0.70794351  0.26621471     0.19100
C977        C  0.72717185  0.72449141  0.24849748    -0.17400
C978        C  0.74174293  0.71999672  0.23253171    -0.19700
C979        C  0.75078669  0.69895348  0.23406860     0.20600
C980        C  0.76577692  0.69469106  0.21819879    -0.32700
C981        C  0.77542706  0.67406679  0.21984407     0.01300
C982        C  0.76942788  0.65723363  0.23757115    -0.24000
C983        C  0.70928666  0.67434216  0.30161275    -0.28600
C984        C  0.70072880  0.69585829  0.30003543     0.07000
C985        C  0.70686007  0.71249337  0.28225571    -0.27200
H986        H  0.72897989  0.63567659  0.30072414     0.11700
H987        H  0.75521771  0.62824840  0.27287327     0.12800
H988        H  0.72049473  0.74097500  0.24698976     0.11900
H989        H  0.74606228  0.73307361  0.21901662     0.11200
H990        H  0.77037744  0.70786003  0.20469009     0.16500
H991        H  0.77675070  0.64123626  0.23901164     0.12500
H992        H  0.70475929  0.66150948  0.31527355     0.15300
H993        H  0.70015313  0.72896470  0.28077115     0.15100
C994        C  0.93301227  0.64646001  0.28390119    -0.17800
C995        C  0.91364345  0.64295072  0.26824661    -0.20000
C996        C  0.92392553  0.66071552  0.25098809     0.20700
C997        C  0.95401505  0.68218573  0.24944157    -0.02900
C998        C  0.97353085  0.68580022  0.26527214    -0.05900
C999        C  0.96299848  0.66783338  0.28259548     0.21000
C1000       C  0.00353136  0.70748623  0.26378735     0.19100
C1001       C  0.01386571  0.72521854  0.24652258    -0.17400
C1002       C  0.99456012  0.72157273  0.23082316    -0.19700
C1003       C  0.96458850  0.70018328  0.23214841     0.20600
C1004       C  0.94498172  0.69669962  0.21658353    -0.32700
C1005       C  0.91483743  0.67557713  0.21810846     0.01300
C1006       C  0.90458069  0.65755255  0.23534883    -0.24000
C1007       C  0.98258200  0.67167250  0.29832072    -0.28600
C1008       C  0.01250712  0.69346309  0.29700237     0.07000
C1009       C  0.02271214  0.71119271  0.27960843    -0.27200
H1010       H  0.92450406  0.63250392  0.29707030     0.11700
H1011       H  0.89056952  0.62636422  0.26966374     0.12800
H1012       H  0.03689307  0.74197242  0.24517864     0.11900
H1013       H  0.00305524  0.73558558  0.21767912     0.11200
H1014       H  0.95314558  0.71075395  0.20342962     0.16500
H1015       H  0.88142420  0.64116134  0.23672277     0.12500
H1016       H  0.97445573  0.65799491  0.31164896     0.15300
H1017       H  0.04574201  0.72796965  0.27827613     0.15100
C1018       C  0.73901927  0.45472662  0.14082907    -0.17800
C1019       C  0.75650796  0.48542668  0.13934623    -0.20000
C1020       C  0.76104131  0.50337453  0.15617517     0.20700
C1021       C  0.74781646  0.49031120  0.17467249    -0.02900
C1022       C  0.72987805  0.45938715  0.17610989    -0.05900
C1023       C  0.72561221  0.44150952  0.15912326     0.21000
C1024       C  0.71628200  0.44636942  0.19455840     0.19100
C1025       C  0.72098099  0.46429375  0.21140187    -0.17400
C1026       C  0.73898328  0.49492070  0.21001549    -0.19700
C1027       C  0.75240961  0.50813316  0.19172977     0.20600
C1028       C  0.77004963  0.53886941  0.19016203    -0.32700
C1029       C  0.78280943  0.55211161  0.17168757     0.01300
C1030       C  0.77834674  0.53416326  0.15478614    -0.24000
C1031       C  0.70819687  0.41074603  0.16081559    -0.28600
C1032       C  0.69464171  0.39783597  0.17914303     0.07000
C1033       C  0.69846574  0.41564088  0.19588271    -0.27200
H1034       H  0.73593169  0.44132246  0.12765397     0.11700
H1035       H  0.76651580  0.49513329  0.12503941     0.12800
H1036       H  0.71078575  0.45460994  0.22567102     0.11900
H1037       H  0.74228436  0.50830494  0.22324001     0.11200
H1038       H  0.77326669  0.55251170  0.20323894     0.16500
H1039       H  0.78820098  0.54414558  0.14049422     0.12500
H1040       H  0.70516713  0.39677879  0.14795922     0.15300
H1041       H  0.68811345  0.40543758  0.21002617     0.15100
C1042       C  0.21542395  0.58157259  0.48747089    -0.17800
C1043       C  0.18471079  0.56640246  0.48579635    -0.20000
C1044       C  0.16732654  0.56859414  0.50096721     0.20700
C1045       C  0.18095730  0.58602126  0.51810021    -0.02900
C1046       C  0.21201949  0.60168499  0.51966574    -0.05900
C1047       C  0.22926765  0.59937871  0.50426402     0.21000
C1048       C  0.22580273  0.61988129  0.53649667     0.19100
C1049       C  0.20833028  0.62162710  0.55181884    -0.17400
C1050       C  0.17750631  0.60575081  0.55039841    -0.19700
C1051       C  0.16359075  0.58806647  0.53353465     0.20600
C1052       C  0.13268786  0.57275054  0.53166768    -0.32700
C1053       C  0.11903417  0.55599081  0.51434186     0.01300
C1054       C  0.13656990  0.55390954  0.49915652    -0.24000
C1055       C  0.26006572  0.61515282  0.50580535    -0.28600
C1056       C  0.27394649  0.63373783  0.52229555     0.07000
C1057       C  0.25676591  0.63611414  0.53759101    -0.27200
H1058       H  0.22837501  0.57959900  0.47552665     0.11700
H1059       H  0.17454649  0.55303113  0.47258021     0.12800
H1060       H  0.21851161  0.63535681  0.56488725     0.11900
H1061       H  0.16454742  0.60757067  0.56240074     0.11200
H1062       H  0.11933789  0.57449089  0.54342977     0.16500
H1063       H  0.12624590  0.54078064  0.48586191     0.12500
H1064       H  0.27337372  0.61353245  0.49394586     0.15300
H1065       H  0.26753801  0.65040075  0.55034156     0.15100
C1066       C  0.08467797  0.64449372  0.39559370    -0.17800
C1067       C  0.08024975  0.62664029  0.41234052    -0.20000
C1068       C  0.05182828  0.60890109  0.42014208     0.20700
C1069       C  0.02759698  0.60918202  0.41104341    -0.02900
C1070       C  0.03201980  0.62692397  0.39394696    -0.05900
C1071       C  0.06072094  0.64470465  0.38629396     0.21000
C1072       C  0.00779442  0.62691956  0.38455510     0.19100
C1073       C  0.97941303  0.60935597  0.39253408    -0.17400
C1074       C  0.97505998  0.59197350  0.40962635    -0.19700
C1075       C  0.99898177  0.59167813  0.41897166     0.20600
C1076       C  0.99480999  0.57397865  0.43594573    -0.32700
C1077       C  0.01881930  0.57309571  0.44474710     0.01300
C1078       C  0.04723591  0.59071564  0.43678525    -0.24000
C1079       C  0.06508091  0.66262412  0.36957216    -0.28600
C1080       C  0.04118040  0.66297531  0.36015328     0.07000
C1081       C  0.01248574  0.64474443  0.36753758    -0.27200
H1082       H  0.10685175  0.65809260  0.38987722     0.11700
H1083       H  0.09907172  0.62671544  0.41920041     0.12800
H1084       H  0.96057150  0.60913296  0.38559096     0.11900
H1085       H  0.95293544  0.57863937  0.41548543     0.11200
H1086       H  0.97281947  0.56028288  0.44195101     0.16500
H1087       H  0.06585662  0.59029885  0.44359236     0.12500
H1088       H  0.08725899  0.67645773  0.36389417     0.15300
H1089       H  0.99402176  0.64512732  0.36045130     0.15100
C1090       C  0.93772480  0.33255799  0.59138787    -0.17800
C1091       C  0.94205428  0.35170888  0.57545615    -0.20000
C1092       C  0.96598816  0.38065240  0.57563414     0.20700
C1093       C  0.98595125  0.39033478  0.59192691    -0.02900
C1094       C  0.98161621  0.37096134  0.60800186    -0.05900
C1095       C  0.95725670  0.34206477  0.60774989     0.21000
C1096       C  0.00132437  0.38065192  0.62445189     0.19100
C1097       C  0.02548646  0.40950808  0.62446544    -0.17400
C1098       C  0.02974875  0.42876365  0.60854160    -0.19700
C1099       C  0.00997552  0.41946773  0.59229765     0.20600
C1100       C  0.01363142  0.43883365  0.57651299    -0.32700
C1101       C  0.99373661  0.42934461  0.56025444     0.01300
C1102       C  0.97010246  0.40013663  0.55989025    -0.24000
C1103       C  0.95237902  0.32332108  0.62405896    -0.28600
C1104       C  0.97126779  0.33300597  0.64088226     0.07000
C1105       C  0.99610161  0.36156281  0.64077730    -0.27200
H1106       H  0.91891166  0.31038954  0.59101075     0.11700
H1107       H  0.92653695  0.34394677  0.56306189     0.12800
H1108       H  0.04089496  0.41731437  0.63691671     0.11900
H1109       H  0.04839475  0.45102702  0.60901292     0.11200
H1110       H  0.03199157  0.46128032  0.57687901     0.16500
H1111       H  0.95455929  0.39267109  0.54750295     0.12500
H1112       H  0.93332783  0.30128886  0.62376335     0.15300
H1113       H  0.01088750  0.36922690  0.65357921     0.15100
C1114       C  0.01000496  0.60704406  0.62306394    -0.17800
C1115       C  0.01614327  0.59285942  0.60760090    -0.20000
C1116       C  0.00248263  0.58866067  0.58878386     0.20700
C1117       C  0.98268953  0.59911294  0.58540284    -0.02900
C1118       C  0.97637712  0.61328593  0.60103555    -0.05900
C1119       C  0.99005497  0.61719276  0.61996315     0.21000
C1120       C  0.95612111  0.62320977  0.59778895     0.19100
C1121       C  0.94281606  0.61941389  0.57887459    -0.17400
C1122       C  0.94915675  0.60545533  0.56335363    -0.19700
C1123       C  0.96883842  0.59498560  0.56652117     0.20600
C1124       C  0.97439406  0.57989237  0.55129059    -0.32700
C1125       C  0.99345547  0.56865397  0.55474587     0.01300
C1126       C  0.00780352  0.57363314  0.57344253    -0.24000
C1127       C  0.98337286  0.63095783  0.63550298    -0.28600
C1128       C  0.96287556  0.64051179  0.63245905     0.07000
C1129       C  0.94938432  0.63658431  0.61354106    -0.27200
H1130       H  0.02068452  0.60987058  0.63749663     0.11700
H1131       H  0.03141042  0.58494927  0.61041569     0.12800
H1132       H  0.92731766  0.62705487  0.57612377     0.11900
H1133       H  0.93840207  0.60254054  0.54894205     0.11200
H1134       H  0.96330542  0.57628035  0.53693753     0.16500
H1135       H  0.02265021  0.56520421  0.57627778     0.12500
H1136       H  0.99379344  0.63381610  0.65005119     0.15300
H1137       H  0.93376982  0.64415081  0.61100056     0.15100
C1138       C  0.79760365  0.43572044  0.47324320    -0.17800
C1139       C  0.82845706  0.45149001  0.47400534    -0.20000
C1140       C  0.84394162  0.43999449  0.48428335     0.20700
C1141       C  0.82812485  0.41219392  0.49376597    -0.02900
C1142       C  0.79696783  0.39645852  0.49321872    -0.05900
C1143       C  0.78165173  0.40828625  0.48290997     0.21000
C1144       C  0.78118203  0.36901269  0.50311118     0.19100
C1145       C  0.79663803  0.35734026  0.51320672    -0.17400
C1146       C  0.82747846  0.37272540  0.51353091    -0.19700
C1147       C  0.84340849  0.40019372  0.50392427     0.20600
C1148       C  0.87433359  0.41595494  0.50446391    -0.32700
C1149       C  0.89029555  0.44393234  0.49538844     0.01300
C1150       C  0.87490822  0.45582751  0.48534118    -0.24000
C1151       C  0.75068329  0.39259468  0.48253781    -0.28600
C1152       C  0.73465572  0.36539992  0.49267247     0.07000
C1153       C  0.75024212  0.35383087  0.50290631    -0.27200
H1154       H  0.78620250  0.44511433  0.46523622     0.11700
H1155       H  0.84022039  0.47273634  0.46656461     0.12800
H1156       H  0.78486091  0.33627272  0.52086805     0.11900
H1157       H  0.83887552  0.36322970  0.52142433     0.11200
H1158       H  0.88598650  0.40670790  0.51235139     0.16500
H1159       H  0.88705283  0.47728493  0.47819903     0.12500
H1160       H  0.73910364  0.40156071  0.47426414     0.15300
H1161       H  0.73832116  0.33321508  0.51107283     0.15100
C1162       C  0.49611780  0.53144640  0.97529974    -0.17800
C1163       C  0.46947612  0.50470846  0.97593433    -0.20000
C1164       C  0.46595083  0.48215074  0.98906010     0.20700
C1165       C  0.48942356  0.48652662  0.00170508    -0.02900
C1166       C  0.51633830  0.51349244  0.00102754    -0.05900
C1167       C  0.51968095  0.53604904  0.98775751     0.21000
C1168       C  0.53986206  0.51785794  0.01361416     0.19100
C1169       C  0.53632307  0.49527524  0.02673683    -0.17400
C1170       C  0.50962080  0.46856561  0.02743653    -0.19700
C1171       C  0.48602918  0.46397797  0.01500873     0.20600
C1172       C  0.45916105  0.43724167  0.01559536    -0.32700
C1173       C  0.43572412  0.43265840  0.00291044     0.01300
C1174       C  0.43935926  0.45529241  0.98970812    -0.24000
C1175       C  0.54649431  0.56280240  0.98717463    -0.28600
C1176       C  0.57008511  0.56738877  0.99970572     0.07000
C1177       C  0.56651360  0.54471489  0.01288148    -0.27200
H1178       H  0.49830161  0.54853358  0.96503572     0.11700
H1179       H  0.45161928  0.50166352  0.96614585     0.12800
H1180       H  0.55420828  0.49828565  0.03648099     0.11900
H1181       H  0.50742843  0.45147987  0.03770480     0.11200
H1182       H  0.45664682  0.41991187  0.02575777     0.16500
H1183       H  0.42142382  0.45211363  0.97993847     0.12500
H1184       H  0.54890722  0.58006408  0.97698581     0.15300
H1185       H  0.58448915  0.54787000  0.02259570     0.15100
C1186       C  0.75064068  0.69816650  0.07036852    -0.17800
C1187       C  0.73194179  0.69367812  0.05405511    -0.20000
C1188       C  0.71066060  0.66498614  0.04826464     0.20700
C1189       C  0.70860227  0.64055967  0.05877072    -0.02900
C1190       C  0.72767908  0.64506823  0.07505090    -0.05900
C1191       C  0.74854210  0.67403738  0.08106269     0.21000
C1192       C  0.72571281  0.62057188  0.08539355     0.19100
C1193       C  0.70472045  0.59187776  0.07947422    -0.17400
C1194       C  0.68551589  0.58743050  0.06356131    -0.19700
C1195       C  0.68721085  0.61160593  0.05320338     0.20600
C1196       C  0.66750459  0.60729197  0.03762066    -0.32700
C1197       C  0.66891885  0.63148853  0.02735654     0.01300
C1198       C  0.69098218  0.66028511  0.03246575    -0.24000
C1199       C  0.76694880  0.67828790  0.09760513    -0.28600
C1200       C  0.76526163  0.65391191  0.10774161     0.07000
C1201       C  0.74476784  0.62517751  0.10148310    -0.27200
H1202       H  0.76669032  0.72053723  0.07466731     0.11700
H1203       H  0.73387572  0.71266895  0.04612494     0.12800
H1204       H  0.70298129  0.57286968  0.08727220     0.11900
H1205       H  0.66923576  0.56507130  0.05941270     0.11200
H1206       H  0.65079269  0.58500085  0.03363983     0.16500
H1207       H  0.69218338  0.67905482  0.02465508     0.12500
H1208       H  0.78310565  0.70046114  0.10225550     0.15300
H1209       H  0.74351404  0.60637478  0.10930477     0.15100
C1210       C  0.85665889  0.17525195  0.70672135    -0.17800
C1211       C  0.82989646  0.14862492  0.70607478    -0.20000
C1212       C  0.81113729  0.14162962  0.68939548     0.20700
C1213       C  0.81921943  0.16176004  0.67329995    -0.02900
C1214       C  0.84623231  0.18858039  0.67393361    -0.05900
C1215       C  0.86508811  0.19529569  0.69068934     0.21000
C1216       C  0.85446328  0.20852352  0.65771822     0.19100
C1217       C  0.83556785  0.20168972  0.64113797    -0.17400
C1218       C  0.80877304  0.17512604  0.64052368    -0.19700
C1219       C  0.80048688  0.15496599  0.65647007     0.20600
C1220       C  0.77401015  0.12795768  0.65572689    -0.32700
C1221       C  0.76607411  0.10747757  0.67152242     0.01300
C1222       C  0.78464864  0.11468178  0.68841257    -0.24000
C1223       C  0.89210956  0.22182656  0.69106662    -0.28600
C1224       C  0.90058085  0.24172336  0.67486633     0.07000
C1225       C  0.88151586  0.23488179  0.65828789    -0.27200
H1226       H  0.87084603  0.18008826  0.71970515     0.11700
H1227       H  0.82395834  0.13339594  0.71857540     0.12800
H1228       H  0.84158740  0.21683914  0.62858216     0.11900
H1229       H  0.79463152  0.17025020  0.62751023     0.11200
H1230       H  0.75989499  0.12270644  0.64265564     0.16500
H1231       H  0.77871725  0.09918402  0.70075321     0.12500
H1232       H  0.90657481  0.22683990  0.70391967     0.15300
H1233       H  0.88769361  0.25003272  0.64571730     0.15100
C1234       C  0.61047876  0.97479267  0.58334730    -0.17800
C1235       C  0.62946206  0.97953097  0.59953523    -0.20000
C1236       C  0.64203381  0.00616903  0.61028988     0.20700
C1237       C  0.63536068  0.02823573  0.60468546    -0.02900
C1238       C  0.61590373  0.02328429  0.58856719    -0.05900
C1239       C  0.60352176  0.99649800  0.57775324     0.21000
C1240       C  0.60889297  0.04518282  0.58327725     0.19100
C1241       C  0.62144776  0.07184043  0.59397465    -0.17400
C1242       C  0.64106543  0.07693030  0.60972770    -0.19700
C1243       C  0.64818620  0.05531887  0.61514945     0.20600
C1244       C  0.66797578  0.06037691  0.63082727    -0.32700
C1245       C  0.67453904  0.03846786  0.63658221     0.01300
C1246       C  0.66128114  0.01126372  0.62645860    -0.24000
C1247       C  0.58435655  0.99190228  0.56160993    -0.28600
C1248       C  0.57709830  0.01358937  0.55640302     0.07000
C1249       C  0.58946005  0.04011507  0.56737173    -0.27200
H1250       H  0.60115458  0.95409091  0.57523807     0.11700
H1251       H  0.63441962  0.96240329  0.60358726     0.12800
H1252       H  0.61621809  0.08883408  0.59008064     0.11900
H1253       H  0.65064866  0.09776669  0.61768993     0.11200
H1254       H  0.67801775  0.08126416  0.63878097     0.16500
H1255       H  0.66651135  0.99443286  0.63086553     0.12500
H1256       H  0.57477295  0.97132542  0.55331952     0.15300
H1257       H  0.58413070  0.05703988  0.56344005     0.15100
C1258       C  0.85628530  0.69719658  0.69530236    -0.17800
C1259       C  0.82915079  0.69620671  0.69618175    -0.20000
C1260       C  0.80793002  0.68168460  0.68115674     0.20700
C1261       C  0.81417478  0.66820126  0.66499860    -0.02900
C1262       C  0.84152793  0.66914763  0.66413023    -0.05900
C1263       C  0.86258151  0.68362801  0.67940043     0.21000
C1264       C  0.84769168  0.65541169  0.64808921     0.19100
C1265       C  0.82655782  0.64112132  0.63296839    -0.17400
C1266       C  0.79945392  0.64025528  0.63379597    -0.19700
C1267       C  0.79304824  0.65363241  0.64977609     0.20600
C1268       C  0.76585059  0.65261308  0.65081494    -0.32700
C1269       C  0.75936798  0.66588145  0.66692386     0.01300
C1270       C  0.78057463  0.68037726  0.68203751    -0.30300
C1271       C  0.88945517  0.68402178  0.67866544    -0.28600
C1272       C  0.89564308  0.66995339  0.66293384     0.07000
C1273       C  0.87472072  0.65592372  0.64757968    -0.27200
H1274       H  0.87228561  0.70842487  0.70712675     0.11700
H1275       H  0.82472399  0.70672358  0.70865854     0.12800
H1276       H  0.83093747  0.63049334  0.62054049     0.11900
H1277       H  0.78344601  0.62901216  0.62197891     0.11200
H1278       H  0.74970557  0.64134732  0.63906768     0.16500
H1279       H  0.77589670  0.69078123  0.69447123     0.12500
H1280       H  0.90539015  0.69502694  0.69056892     0.15300
H1281       H  0.87926134  0.64508204  0.63536346     0.15100
C1282       C  0.87002628  0.98311421  0.85041933    -0.17800
C1283       C  0.83917508  0.96770505  0.85062941    -0.20000
C1284       C  0.82335996  0.93872921  0.84325349     0.20700
C1285       C  0.83880582  0.92534191  0.83528377    -0.02900
C1286       C  0.86993378  0.94109487  0.83475180    -0.05900
C1287       C  0.88559503  0.96995317  0.84259972     0.21000
C1288       C  0.88534816  0.92784068  0.82656388     0.19100
C1289       C  0.86953546  0.89898133  0.81897941    -0.17400
C1290       C  0.83872583  0.88319883  0.81979634    -0.19700
C1291       C  0.82318477  0.89613632  0.82798811     0.20600
C1292       C  0.79231627  0.88034770  0.82903518    -0.32700
C1293       C  0.77672133  0.89351216  0.83692466     0.01300
C1294       C  0.79241419  0.92284532  0.84382490    -0.24000
C1295       C  0.91652516  0.98500396  0.84277440    -0.28600
C1296       C  0.93226818  0.97201197  0.83468553     0.07000
C1297       C  0.91628478  0.94351505  0.82627010    -0.27200
H1298       H  0.88172405  0.00533457  0.85642148     0.11700
H1299       H  0.82768646  0.97834735  0.85676198     0.12800
H1300       H  0.88102018  0.88846696  0.81262370     0.11900
H1301       H  0.82704644  0.86083972  0.81404226     0.11200
H1302       H  0.78039537  0.85789672  0.82343109     0.16500
H1303       H  0.78056811  0.93316559  0.84990210     0.12500
H1304       H  0.92823023  0.00662548  0.84967289     0.15300
H1305       H  0.92781704  0.93337265  0.81945894     0.15100
C1306       C  0.64346310  0.72101678  0.71446019    -0.17800
C1307       C  0.63983760  0.73679928  0.73005912    -0.20000
C1308       C  0.65638051  0.74280473  0.74780450     0.20700
C1309       C  0.67643246  0.73242658  0.75002640    -0.02900
C1310       C  0.68018883  0.71660699  0.73423894    -0.05900
C1311       C  0.66374801  0.71104891  0.71632258     0.21000
C1312       C  0.70082035  0.70691465  0.73622249     0.19100
C1313       C  0.71695711  0.71244225  0.75412972    -0.17400
C1314       C  0.71311679  0.72798761  0.76982039    -0.19700
C1315       C  0.69314827  0.73834858  0.76784205     0.20600
C1316       C  0.69003664  0.75501852  0.78317415    -0.32700
C1317       C  0.67062089  0.76609149  0.78083782     0.01300
C1318       C  0.65359400  0.75948978  0.76318798    -0.24000
C1319       C  0.66838241  0.69627345  0.70040267    -0.28600
C1320       C  0.68963440  0.68743682  0.70200022     0.07000
C1321       C  0.70543642  0.69246058  0.72010531    -0.27200
H1322       H  0.63066591  0.71694136  0.70081982     0.11700
H1323       H  0.62430283  0.74458710  0.72815609     0.12800
H1324       H  0.73281491  0.70504163  0.75591111     0.11900
H1325       H  0.72606872  0.73225499  0.78340183     0.11200
H1326       H  0.70322090  0.75991748  0.79670480     0.16500
H1327       H  0.63840497  0.76770922  0.76124067     0.12500
H1328       H  0.65616863  0.69260033  0.68651926     0.15300
H1329       H  0.72168962  0.68550519  0.72157779     0.15100
C1330       C  0.72363077  0.00899482  0.75285925    -0.17800
C1331       C  0.71746720  0.98918223  0.76867859    -0.20000
C1332       C  0.69785621  0.95893857  0.76591276     0.20700
C1333       C  0.68411077  0.94855237  0.74707984    -0.02900
C1334       C  0.69021797  0.96857461  0.73113557    -0.05900
C1335       C  0.71018376  0.99888375  0.73405988     0.21000
C1336       C  0.67644791  0.95827012  0.71228726     0.19100
C1337       C  0.65680921  0.92800587  0.70955141    -0.17400
C1338       C  0.65091108  0.90811128  0.72533075    -0.19700
C1339       C  0.66446916  0.91816215  0.74412532     0.20600
C1340       C  0.65906299  0.89833069  0.75992440    -0.32700
C1341       C  0.67306977  0.90846573  0.77865923     0.01300
C1342       C  0.69213781  0.93888553  0.78157606    -0.24000
C1343       C  0.71633857  0.01861812  0.71816708    -0.28600
C1344       C  0.70255520  0.00864732  0.69937429     0.07000
C1345       C  0.68256439  0.97841106  0.69654151    -0.27200
H1346       H  0.73896163  0.03224649  0.75532353     0.11700
H1347       H  0.72819258  0.99749163  0.78304303     0.12800
H1348       H  0.64608025  0.91970800  0.69518902     0.11900
H1349       H  0.63578583  0.88482614  0.72281393     0.11200
H1350       H  0.64429112  0.87493776  0.75750060     0.16500
H1351       H  0.70307146  0.94696269  0.79591608     0.12500
H1352       H  0.73160710  0.04190955  0.72058190     0.15300
H1353       H  0.67195189  0.97053993  0.68208592     0.15100
C1354       C  0.69949446  0.74503928  0.92488855    -0.17800
C1355       C  0.69545826  0.72568554  0.94070969    -0.20000
C1356       C  0.66705061  0.70612185  0.94796126     0.20700
C1357       C  0.64252554  0.70644901  0.93943609    -0.02900
C1358       C  0.64663158  0.72622100  0.92368323    -0.05900
C1359       C  0.67521409  0.74533610  0.91616015     0.21000
C1360       C  0.62205206  0.72656161  0.91530279     0.19100
C1361       C  0.59369485  0.70733074  0.92269534    -0.17400
C1362       C  0.58959099  0.68745935  0.93807849    -0.19700
C1363       C  0.61381173  0.68671722  0.94643855     0.20600
C1364       C  0.60973193  0.66629051  0.96148106    -0.32700
C1365       C  0.63397537  0.66554735  0.96990399     0.01300
C1366       C  0.66264618  0.68588873  0.96332522    -0.24000
C1367       C  0.67890117  0.76419965  0.89997817    -0.28600
C1368       C  0.65438825  0.76452746  0.89159395     0.07000
C1369       C  0.62614473  0.74588173  0.89951444    -0.27200
H1370       H  0.72160107  0.75966912  0.91940978     0.11700
H1371       H  0.71453645  0.72576201  0.94710811     0.12800
H1372       H  0.57463414  0.70741379  0.91640732     0.11900
H1373       H  0.56743427  0.67254026  0.94336306     0.11200
H1374       H  0.58760768  0.65090461  0.96663286     0.16500
H1375       H  0.68143703  0.68536929  0.96971749     0.12500
H1376       H  0.70076304  0.77879370  0.89406997     0.15300
H1377       H  0.60714082  0.74596694  0.89308671     0.15100
C1378       C  0.49101954  0.71815435  0.79139050    -0.17800
C1379       C  0.46026411  0.70283660  0.78957485    -0.20000
C1380       C  0.44295251  0.70932468  0.80235816     0.20700
C1381       C  0.45675837  0.73130085  0.81723502    -0.02900
C1382       C  0.48769239  0.74634244  0.81930477    -0.05900
C1383       C  0.50494397  0.73996401  0.80617666     0.21000
C1384       C  0.50133458  0.76777450  0.83451691     0.19100
C1385       C  0.48409183  0.77427405  0.84732159    -0.17400
C1386       C  0.45349527  0.75973392  0.84505054    -0.19700
C1387       C  0.43966468  0.73824857  0.83008499     0.20600
C1388       C  0.40901282  0.72348340  0.82783526    -0.32700
C1389       C  0.39510520  0.70143650  0.81320028     0.01300
C1390       C  0.41210868  0.69426521  0.80057949    -0.24000
C1391       C  0.53576991  0.75548401  0.80813191    -0.28600
C1392       C  0.54931482  0.77653827  0.82344068     0.07000
C1393       C  0.53199638  0.78239557  0.83664973    -0.27200
H1394       H  0.50391366  0.71287715  0.78126659     0.11700
H1395       H  0.45002281  0.68602072  0.77809380     0.12800
H1396       H  0.49429161  0.79071432  0.85904083     0.11900
H1397       H  0.44062598  0.76521077  0.85505630     0.11200
H1398       H  0.39581350  0.72866028  0.83776728     0.16500
H1399       H  0.40130464  0.67720361  0.78930035     0.12500
H1400       H  0.54918093  0.75081017  0.79805740     0.15300
H1401       H  0.54250593  0.79878563  0.84838651     0.15100
C1402       C  0.39712659  0.42159294  0.60003049    -0.17800
C1403       C  0.38093038  0.40220999  0.61554995    -0.20000
C1404       C  0.37494782  0.37290140  0.61529462     0.20700
C1405       C  0.38527397  0.36300231  0.59916255    -0.02900
C1406       C  0.40156394  0.38253623  0.58348514    -0.05900
C1407       C  0.40757512  0.41198161  0.58399011     0.21000
C1408       C  0.41200046  0.37266402  0.56740912     0.19100
C1409       C  0.40605980  0.34336814  0.56715240    -0.17400
C1410       C  0.38998644  0.32403146  0.58272022    -0.19700
C1411       C  0.37956725  0.33367017  0.59877113     0.20600
C1412       C  0.36388128  0.31457057  0.61456292    -0.32700
C1413       C  0.35385704  0.32431654  0.63090519     0.01300
C1414       C  0.35920800  0.35347393  0.63102303    -0.24000
C1415       C  0.42409585  0.43137348  0.56852734    -0.28600
C1416       C  0.43468470  0.42178207  0.55247043     0.07000
C1417       C  0.42837888  0.39230368  0.55196221    -0.27200
H1418       H  0.40157889  0.44417188  0.60061395     0.11700
H1419       H  0.37321981  0.41018947  0.62781101     0.12800
H1420       H  0.41394349  0.33544800  0.55496121     0.11900
H1421       H  0.38580316  0.30153932  0.58224537     0.11200
H1422       H  0.35986473  0.29212916  0.61419660     0.16500
H1423       H  0.35171993  0.36126807  0.64353040     0.12500
H1424       H  0.42874910  0.45403069  0.56904970     0.15300
H1425       H  0.43654208  0.38473834  0.53971666     0.15100
C1426       C  0.35737927  0.42803637  0.41956859    -0.17800
C1427       C  0.33671280  0.41198875  0.40467178    -0.20000
C1428       C  0.33732728  0.38854893  0.39490704     0.20700
C1429       C  0.35863613  0.38083093  0.40038151    -0.02900
C1430       C  0.37924491  0.39676493  0.41566612    -0.05900
C1431       C  0.37880399  0.42071620  0.42507329     0.21000
C1432       C  0.40048246  0.38900229  0.42134575     0.19100
C1433       C  0.40086238  0.36535356  0.41164369    -0.17400
C1434       C  0.38068629  0.34982461  0.39626235    -0.19700
C1435       C  0.35956866  0.35746893  0.39043781     0.20600
C1436       C  0.33951135  0.34237307  0.37478967    -0.32700
C1437       C  0.31821600  0.35003409  0.36930137     0.01300
C1438       C  0.31716503  0.37295891  0.37960631    -0.24000
C1439       C  0.40000742  0.43720250  0.43964642    -0.28600
C1440       C  0.42137987  0.42981753  0.44531794     0.07000
C1441       C  0.42119662  0.40534301  0.43637917    -0.27200
H1442       H  0.35669015  0.44628598  0.42672762     0.11700
H1443       H  0.32043811  0.41812686  0.40062666     0.12800
H1444       H  0.41699612  0.35907488  0.41579437     0.11900
H1445       H  0.38166728  0.33188502  0.38887456     0.11200
H1446       H  0.34031624  0.32458658  0.36701734     0.16500
H1447       H  0.30099099  0.37918769  0.37542137     0.12500
H1448       H  0.39984997  0.45583835  0.44665610     0.15300
H1449       H  0.43770765  0.39962945  0.44067081     0.15100
C1450       C  0.66934824  0.61636821  0.58263880    -0.17800
C1451       C  0.65061214  0.60135337  0.56658119    -0.20000
C1452       C  0.62027705  0.59098556  0.56803016     0.20700
C1453       C  0.60872318  0.59609738  0.58576413    -0.02900
C1454       C  0.62767294  0.61135784  0.60197400    -0.05900
C1455       C  0.65804570  0.62128201  0.60040082     0.21000
C1456       C  0.61618483  0.61625545  0.61983226     0.19100
C1457       C  0.58584295  0.60606695  0.62118740    -0.17400
C1458       C  0.56702000  0.59082737  0.60513357    -0.19700
C1459       C  0.57822634  0.58558310  0.58741474     0.20600
C1460       C  0.55944718  0.56965281  0.57143933    -0.32700
C1461       C  0.57077191  0.56412865  0.55378357     0.01300
C1462       C  0.60128711  0.57520511  0.55216407    -0.24000
C1463       C  0.67659180  0.63545559  0.61673197    -0.28600
C1464       C  0.66535061  0.63986199  0.63479757     0.07000
C1465       C  0.63514954  0.63067754  0.63611623    -0.27200
H1466       H  0.69265923  0.62390395  0.58123591     0.11700
H1467       H  0.65982983  0.59760724  0.55307715     0.12800
H1468       H  0.57660463  0.60960904  0.63475283     0.11900
H1469       H  0.54365332  0.58293987  0.60663691     0.11200
H1470       H  0.53597218  0.56128583  0.57286621     0.16500
H1471       H  0.61025845  0.57101199  0.53870102     0.12500
H1472       H  0.69986251  0.64270912  0.61540383     0.15300
H1473       H  0.62626434  0.63393937  0.64995982     0.15100
C1474       C  0.57155039  0.64012607  0.39163853    -0.17800
C1475       C  0.55551982  0.62017860  0.40687472    -0.20000
C1476       C  0.56524083  0.60180286  0.41505273     0.20700
C1477       C  0.59105452  0.60306090  0.40758942    -0.02900
C1478       C  0.60697321  0.62286048  0.39191935    -0.05900
C1479       C  0.59733963  0.64173868  0.38417431     0.21000
C1480       C  0.63267387  0.62407434  0.38421084     0.19100
C1481       C  0.64211605  0.60534178  0.39227656    -0.17400
C1482       C  0.62658797  0.58603766  0.40808608    -0.19700
C1483       C  0.60115614  0.58488657  0.41597185     0.20600
C1484       C  0.58578413  0.56620011  0.43219748    -0.32700
C1485       C  0.56008881  0.56504119  0.43968443     0.01300
C1486       C  0.54977390  0.58254606  0.43079068    -0.24000
C1487       C  0.61378770  0.66217400  0.36924451    -0.28600
C1488       C  0.63951405  0.66378159  0.36155026     0.07000
C1489       C  0.64862094  0.64430602  0.36881899    -0.27200
H1490       H  0.56384134  0.65441314  0.38574802     0.11700
H1491       H  0.53572033  0.61941101  0.41246338     0.12800
H1492       H  0.66174098  0.60590193  0.38654299     0.11900
H1493       H  0.63457074  0.57211641  0.41421799     0.11200
H1494       H  0.59360264  0.55244681  0.43887327     0.16500
H1495       H  0.53003774  0.58179821  0.43654008     0.12500
H1496       H  0.60641664  0.67682810  0.36349753     0.15300
H1497       H  0.66847933  0.64550393  0.36293160     0.15100
C1498       C  0.56936396  0.35914134  0.47406126    -0.17800
C1499       C  0.55361768  0.37423139  0.47416053    -0.20000
C1500       C  0.56469746  0.40118204  0.48434877     0.20700
C1501       C  0.59192213  0.41308009  0.49455729    -0.02900
C1502       C  0.60761083  0.39759726  0.49470921    -0.05900
C1503       C  0.59630017  0.37059037  0.48432588     0.21000
C1504       C  0.63455700  0.40912576  0.50521291     0.19100
C1505       C  0.64568349  0.43617947  0.51533917    -0.17400
C1506       C  0.63032757  0.45173818  0.51496527    -0.19700
C1507       C  0.60342408  0.44037798  0.50463194     0.20600
C1508       C  0.58769669  0.45566640  0.50429214    -0.32700
C1509       C  0.56028096  0.44361572  0.49442921     0.01300
C1510       C  0.54895120  0.41635577  0.48453579    -0.24000
C1511       C  0.61210653  0.35548931  0.48429987    -0.28600
C1512       C  0.63887402  0.36652073  0.49489977     0.07000
C1513       C  0.64986888  0.39340886  0.50540425    -0.27200
H1514       H  0.56038084  0.33840073  0.46602362     0.11700
H1515       H  0.53278608  0.36484702  0.46622118     0.12800
H1516       H  0.66633372  0.44537535  0.52347883     0.11900
H1517       H  0.63944744  0.47261703  0.52283988     0.11200
H1518       H  0.59643947  0.47658913  0.51208306     0.16500
H1519       H  0.52793846  0.40705960  0.47680834     0.12500
H1520       H  0.60364248  0.33524107  0.47573560     0.15300
H1521       H  0.67018689  0.40202253  0.51388128     0.15100
C1522       C  0.42583002  0.60515572  0.47673682    -0.17800
C1523       C  0.41139429  0.62138275  0.47904892    -0.20000
C1524       C  0.39880085  0.62175580  0.49755786     0.20700
C1525       C  0.40104998  0.60588564  0.51399502    -0.02900
C1526       C  0.41590032  0.58976745  0.51171276    -0.05900
C1527       C  0.42809924  0.58919432  0.49293849     0.21000
C1528       C  0.41829419  0.57403090  0.52815596     0.19100
C1529       C  0.40593557  0.57463642  0.54673022    -0.17400
C1530       C  0.39092362  0.59033198  0.54893777    -0.19700
C1531       C  0.38820428  0.60586817  0.53264443     0.20600
C1532       C  0.37266218  0.62116713  0.53458983    -0.32700
C1533       C  0.37035706  0.63688382  0.51824586     0.01300
C1534       C  0.38371629  0.63742833  0.49987168    -0.24000
C1535       C  0.44220137  0.57255021  0.49064562    -0.28600
C1536       C  0.44458883  0.55667156  0.50693229     0.07000
C1537       C  0.43277135  0.55776858  0.52569570    -0.27200
H1538       H  0.43515258  0.60501825  0.46224560     0.11700
H1539       H  0.40985542  0.63344844  0.46629273     0.12800
H1540       H  0.40764320  0.56272959  0.55952217     0.11900
H1541       H  0.38133350  0.59021946  0.56336951     0.11200
H1542       H  0.36241078  0.62097374  0.54877273     0.16500
H1543       H  0.38178970  0.64957786  0.48729776     0.12500
H1544       H  0.45141566  0.57206250  0.47617366     0.15300
H1545       H  0.43446829  0.54562670  0.53835331     0.15100
C1546       C  0.51605830  0.01868470  0.03471187    -0.17800
C1547       C  0.48885281  0.01764679  0.03481591    -0.20000
C1548       C  0.46843590  0.00335899  0.01929411     0.20700
C1549       C  0.47535004  0.98973546  0.00359964    -0.02900
C1550       C  0.50276820  0.99075714  0.00350326    -0.05900
C1551       C  0.52325335  0.00540705  0.01909121     0.21000
C1552       C  0.50972255  0.97727009  0.98774482     0.19100
C1553       C  0.48924410  0.96282114  0.97228691    -0.17400
C1554       C  0.46207913  0.96183348  0.97237090    -0.19700
C1555       C  0.45498471  0.97529083  0.98792001     0.20600
C1556       C  0.42800446  0.97480619  0.98792509    -0.32700
C1557       C  0.42109983  0.98872664  0.00335193     0.01300
C1558       C  0.44137363  0.00272916  0.01908240    -0.24000
C1559       C  0.55060114  0.00660995  0.01876435    -0.28600
C1560       C  0.55771821  0.99323954  0.00308151     0.07000
C1561       C  0.53706556  0.97854846  0.98766368    -0.27200
H1562       H  0.53151103  0.02995926  0.04680531     0.11700
H1563       H  0.48384548  0.02818114  0.04699773     0.12800
H1564       H  0.49428026  0.95235185  0.96007738     0.11900
H1565       H  0.44667438  0.95066219  0.96023282     0.11200
H1566       H  0.41258257  0.96389491  0.97574186     0.16500
H1567       H  0.43626621  0.01341335  0.03111532     0.12500
H1568       H  0.56627514  0.01791527  0.03074979     0.15300
H1569       H  0.54228163  0.96820961  0.97545779     0.15100
C1570       C  0.58645194  0.88637562  0.92182874    -0.17800
C1571       C  0.58170951  0.90010486  0.93824311    -0.20000
C1572       C  0.60532784  0.92522202  0.94695656     0.20700
C1573       C  0.63402102  0.93663599  0.93911046    -0.02900
C1574       C  0.63873448  0.92304179  0.92235634    -0.05900
C1575       C  0.61484041  0.89770884  0.91378519     0.21000
C1576       C  0.66732902  0.93475360  0.91422066     0.19100
C1577       C  0.69094934  0.95975599  0.92305862    -0.17400
C1578       C  0.68632655  0.97305807  0.93981745    -0.19700
C1579       C  0.65796458  0.96171909  0.94792056     0.20600
C1580       C  0.65302808  0.97529244  0.96445377    -0.32700
C1581       C  0.62435715  0.96451894  0.97192675     0.01300
C1582       C  0.60067514  0.93934664  0.96320939    -0.24000
C1583       C  0.61978265  0.88396084  0.89743896    -0.28600
C1584       C  0.64822027  0.89535014  0.88932513     0.07000
C1585       C  0.67183254  0.92101783  0.89757498    -0.27200
H1586       H  0.56789887  0.86692984  0.91539002     0.11700
H1587       H  0.55956878  0.89108022  0.94412303     0.12800
H1588       H  0.71304172  0.96897027  0.91704887     0.11900
H1589       H  0.70492366  0.99233906  0.94637388     0.11200
H1590       H  0.67131273  0.99484068  0.97103594     0.16500
H1591       H  0.57854508  0.93083622  0.96901777     0.12500
H1592       H  0.60144639  0.86425495  0.89104494     0.15300
H1593       H  0.69382194  0.92971253  0.89146102     0.15100
C1594       C  0.97003696  0.50103006  0.02689311    -0.17800
C1595       C  0.97249806  0.47572662  0.02884931    -0.20000
C1596       C  0.98962455  0.47019864  0.01524642     0.20700
C1597       C  0.00442863  0.49036161  0.99952334    -0.02900
C1598       C  0.00187943  0.51585617  0.99751564    -0.05900
C1599       C  0.98462386  0.52118978  0.01128911     0.21000
C1600       C  0.01660470  0.53598219  0.98175458     0.19100
C1601       C  0.03377328  0.53048316  0.96817560    -0.17400
C1602       C  0.03633022  0.50523150  0.97018263    -0.19700
C1603       C  0.02174140  0.48504902  0.98578360     0.20600
C1604       C  0.02405302  0.45959297  0.98781542    -0.32700
C1605       C  0.00917256  0.43920017  0.00335765     0.01300
C1606       C  0.99207754  0.44479539  0.01705748    -0.24000
C1607       C  0.98233535  0.54663114  0.00928342    -0.28600
C1608       C  0.99704691  0.56691704  0.99366775     0.07000
C1609       C  0.01403652  0.56131614  0.97989620    -0.27200
H1610       H  0.95670406  0.50483039  0.03759825     0.11700
H1611       H  0.96099442  0.46047012  0.04100069     0.12800
H1612       H  0.04524135  0.54572329  0.95601021     0.11900
H1613       H  0.04970963  0.50146384  0.95949656     0.11200
H1614       H  0.03728586  0.45559050  0.97713690     0.16500
H1615       H  0.98052682  0.42933742  0.02910888     0.12500
H1616       H  0.96912044  0.55062478  0.01998084     0.15300
H1617       H  0.02554373  0.57679092  0.96784319     0.15100
C1618       C  0.11042966  0.41868809  0.94393207    -0.17800
C1619       C  0.12486195  0.41390949  0.92795383    -0.20000
C1620       C  0.11464141  0.38529807  0.92053616     0.20700
C1621       C  0.08982706  0.36120425  0.92943343    -0.02900
C1622       C  0.07558748  0.36596795  0.94581635    -0.05900
C1623       C  0.08575014  0.39489297  0.95291717     0.21000
C1624       C  0.05096932  0.34185290  0.95489747     0.19100
C1625       C  0.04078479  0.31325029  0.94746179    -0.17400
C1626       C  0.05461985  0.30858389  0.93102803    -0.19700
C1627       C  0.07907649  0.33239723  0.92185709     0.20600
C1628       C  0.09292166  0.32795275  0.90523118    -0.32700
C1629       C  0.11782769  0.35184683  0.89643286     0.01300
C1630       C  0.12868396  0.38040218  0.90429344    -0.24000
C1631       C  0.07076724  0.39957671  0.96864564    -0.28600
C1632       C  0.04603960  0.37570017  0.97765678     0.07000
C1633       C  0.03660992  0.34683481  0.97095833    -0.27200
H1634       H  0.11853217  0.44102345  0.94923071     0.11700
H1635       H  0.14386230  0.43264209  0.92126784     0.12800
H1636       H  0.02189055  0.29449831  0.95422232     0.11900
H1637       H  0.04614453  0.28631512  0.92546443     0.11200
H1638       H  0.08463109  0.30586943  0.89933485     0.16500
H1639       H  0.14778282  0.39893433  0.89750032     0.12500
H1640       H  0.07822419  0.42187867  0.97379663     0.15300
H1641       H  0.01738675  0.32838126  0.97769573     0.15100
C1642       C  0.65517960  0.83382891  0.36710225    -0.17800
C1643       C  0.65503559  0.80701537  0.36697106    -0.20000
C1644       C  0.66223462  0.79716279  0.34941892     0.20700
C1645       C  0.66979911  0.81456427  0.33184559    -0.02900
C1646       C  0.66989355  0.84160192  0.33196989    -0.05900
C1647       C  0.66247062  0.85121399  0.34967704     0.21000
C1648       C  0.67733411  0.85894329  0.31437838     0.19100
C1649       C  0.68462532  0.84913381  0.29683899    -0.17400
C1650       C  0.68459337  0.82237150  0.29672717    -0.19700
C1651       C  0.67725344  0.80496473  0.31414526     0.20600
C1652       C  0.67729439  0.77817322  0.31417927    -0.32700
C1653       C  0.66974511  0.76065910  0.33163438     0.01300
C1654       C  0.66208577  0.77027222  0.34916673    -0.24000
C1655       C  0.66231008  0.87794627  0.34963633    -0.28600
C1656       C  0.66952762  0.89532909  0.33213041     0.07000
C1657       C  0.67720108  0.88569768  0.31458729    -0.27200
H1658       H  0.64948644  0.84093061  0.38083777     0.11700
H1659       H  0.64926780  0.79396558  0.38060206     0.12800
H1660       H  0.69034304  0.86215853  0.28319881     0.11900
H1661       H  0.69032228  0.81528582  0.28299982     0.11200
H1662       H  0.68305718  0.77089594  0.30054483     0.16500
H1663       H  0.65638394  0.75703437  0.36271756     0.12500
H1664       H  0.65651624  0.88516672  0.36328135     0.15300
H1665       H  0.68275233  0.89882126  0.30099120     0.15100
C1666       C  0.62249862  0.01868392  0.38163449    -0.17800
C1667       C  0.60819074  0.02387902  0.39752950    -0.20000
C1668       C  0.59632557  0.00380054  0.41353890     0.20700
C1669       C  0.59914179  0.97834376  0.41362016    -0.02900
C1670       C  0.61346659  0.97302627  0.39751759    -0.05900
C1671       C  0.62513851  0.99325627  0.38142457     0.21000
C1672       C  0.61587664  0.94735036  0.39746486     0.19100
C1673       C  0.60417276  0.92734665  0.41352311    -0.17400
C1674       C  0.59009452  0.93265998  0.42949533    -0.19700
C1675       C  0.58739497  0.95805003  0.42967304     0.20600
C1676       C  0.57279186  0.96325359  0.44547326    -0.32700
C1677       C  0.56932509  0.98828281  0.44531889     0.01300
C1678       C  0.58137960  0.00853689  0.42931849    -0.24000
C1679       C  0.63903145  0.98762374  0.36534442    -0.28600
C1680       C  0.64134294  0.96191371  0.36507507     0.07000
C1681       C  0.62975396  0.94199438  0.38131408    -0.27200
H1682       H  0.63133942  0.03446919  0.36943954     0.11700
H1683       H  0.60627402  0.04358616  0.39724280     0.12800
H1684       H  0.60582539  0.90748784  0.41370725     0.11900
H1685       H  0.58116279  0.91681871  0.44165345     0.11200
H1686       H  0.56347171  0.94741499  0.45762144     0.16500
H1687       H  0.57896140  0.02796151  0.42905772     0.12500
H1688       H  0.64781478  0.00316093  0.35299709     0.15300
H1689       H  0.63132942  0.92209063  0.38139799     0.15100
C1690       C  0.13304116  0.30248593  0.30270350    -0.17800
C1691       C  0.15928916  0.30156939  0.30299266    -0.20000
C1692       C  0.17860585  0.31297212  0.31942424     0.20700
C1693       C  0.17142014  0.32541827  0.33572937    -0.02900
C1694       C  0.14498241  0.32636836  0.33543108    -0.05900
C1695       C  0.12570956  0.31485378  0.31884019     0.21000
C1696       C  0.13790488  0.33891410  0.35172528     0.19100
C1697       C  0.15714764  0.35024344  0.36817835    -0.17400
C1698       C  0.18332503  0.34927946  0.36848229    -0.19700
C1699       C  0.19065653  0.33696926  0.35232935     0.20600
C1700       C  0.21691122  0.33604683  0.35252829    -0.32700
C1701       C  0.22429349  0.32367223  0.33636176     0.01300
C1702       C  0.20496837  0.31216555  0.31984749    -0.24000
C1703       C  0.09952283  0.31601915  0.31864085    -0.28600
C1704       C  0.09244142  0.32871804  0.33478468     0.07000
C1705       C  0.11176842  0.34002530  0.35128041    -0.27200
H1706       H  0.11850546  0.29357078  0.28985379     0.11700
H1707       H  0.16448811  0.29193697  0.29034136     0.12800
H1708       H  0.15197463  0.35991913  0.38081745     0.11900
H1709       H  0.19786010  0.35820134  0.38133508     0.11200
H1710       H  0.23154381  0.34494435  0.36534504     0.16500
H1711       H  0.21040815  0.30260171  0.30727125     0.12500
H1712       H  0.08482775  0.30725636  0.30584720     0.15300
H1713       H  0.10652030  0.34973849  0.36386607     0.15100
C1714       C  0.96766245  0.37956873  0.41136577    -0.17800
C1715       C  0.97102899  0.36591208  0.39429586    -0.20000
C1716       C  0.99917856  0.37228521  0.38799473     0.20700
C1717       C  0.02420814  0.39278905  0.39898041    -0.02900
C1718       C  0.02084565  0.40676963  0.41606292    -0.05900
C1719       C  0.99240293  0.40001083  0.42234656     0.21000
C1720       C  0.04596823  0.42766950  0.42675316     0.19100
C1721       C  0.07412520  0.43402500  0.42054642    -0.17400
C1722       C  0.07742171  0.41985762  0.40380660    -0.19700
C1723       C  0.05262121  0.39930051  0.39293848     0.20600
C1724       C  0.05578341  0.38489439  0.37627332    -0.32700
C1725       C  0.03098140  0.36401875  0.36540583     0.01300
C1726       C  0.00274219  0.35820551  0.37112660    -0.24000
C1727       C  0.98929001  0.41426750  0.43924373    -0.28600
C1728       C  0.01431397  0.43580674  0.44946059     0.07000
C1729       C  0.04253113  0.44223340  0.44325089    -0.27200
H1730       H  0.94569066  0.37425051  0.41592394     0.11700
H1731       H  0.95157634  0.35023203  0.38607127     0.12800
H1732       H  0.09360134  0.44997455  0.42862738     0.11900
H1733       H  0.09937828  0.42502397  0.39933165     0.11200
H1734       H  0.07770348  0.38979937  0.37187635     0.16500
H1735       H  0.98353552  0.34207169  0.36288734     0.12500
H1736       H  0.96753854  0.40958722  0.44391515     0.15300
H1737       H  0.06183265  0.45882070  0.45118847     0.15100
C1738       C  0.67874061  0.09660204  0.06279254    -0.17800
C1739       C  0.69866619  0.11235000  0.07815882    -0.20000
C1740       C  0.71808357  0.10331482  0.08542089     0.20700
C1741       C  0.71775922  0.07843020  0.07694143    -0.02900
C1742       C  0.69800265  0.06284513  0.06119770    -0.05900
C1743       C  0.67814575  0.07176704  0.05430596     0.21000
C1744       C  0.69785226  0.03813058  0.05255241     0.19100
C1745       C  0.71745480  0.02925985  0.05971875    -0.17400
C1746       C  0.73674080  0.04444802  0.07554370    -0.19700
C1747       C  0.73694769  0.06893734  0.08432303     0.20600
C1748       C  0.75589970  0.08403824  0.10039194    -0.32700
C1749       C  0.75639557  0.10891538  0.10881066     0.01300
C1750       C  0.73765296  0.11859438  0.10111931    -0.24000
C1751       C  0.65775545  0.05545889  0.03925213    -0.28600
C1752       C  0.65727732  0.03065768  0.03071466     0.07000
C1753       C  0.67773845  0.02242501  0.03715979    -0.27200
H1754       H  0.66370368  0.10377781  0.05759927     0.11700
H1755       H  0.69867439  0.13142164  0.08451429     0.12800
H1756       H  0.71762402  0.01034397  0.05324281     0.11900
H1757       H  0.75144300  0.03698158  0.08095973     0.11200
H1758       H  0.77057623  0.07673062  0.10615496     0.16500
H1759       H  0.73791647  0.13772529  0.10763046     0.12500
H1760       H  0.64219622  0.06205120  0.03417903     0.15300
H1761       H  0.67733131  0.00321129  0.03067946     0.15100
C1762       C  0.96517320  0.26849252  0.08485421    -0.17800
C1763       C  0.98141982  0.28789365  0.06928774    -0.20000
C1764       C  0.97150713  0.30550503  0.06003256     0.20700
C1765       C  0.94485972  0.30342057  0.06650854    -0.02900
C1766       C  0.92826587  0.28355021  0.08201591    -0.05900
C1767       C  0.93856315  0.26612998  0.09134131     0.21000
C1768       C  0.90138590  0.28115725  0.08817968     0.19100
C1769       C  0.89146185  0.29877869  0.07898969    -0.17400
C1770       C  0.90810486  0.31876860  0.06387467    -0.19700
C1771       C  0.93480936  0.32126211  0.05755041     0.20600
C1772       C  0.95167749  0.34140648  0.04249779    -0.32700
C1773       C  0.97822012  0.34362199  0.03589948     0.01300
C1774       C  0.98784312  0.32533328  0.04456471    -0.24000
C1775       C  0.92199408  0.24658651  0.10688606    -0.28600
C1776       C  0.89493957  0.24379114  0.11289133     0.07000
C1777       C  0.88484250  0.26117046  0.10340030    -0.27200
H1778       H  0.97339469  0.25525319  0.09178681     0.11700
H1779       H  0.00184759  0.28923572  0.06455670     0.12800
H1780       H  0.87086424  0.29720023  0.08356225     0.11900
H1781       H  0.90006056  0.33226123  0.05710621     0.11200
H1782       H  0.94400951  0.35526617  0.03578308     0.16500
H1783       H  0.00839246  0.32709763  0.03964174     0.12500
H1784       H  0.92982542  0.23312754  0.11400730     0.15300
H1785       H  0.86411450  0.25931141  0.10798568     0.15100
C1786       C  0.72324324  0.99021905  0.24814131    -0.17800
C1787       C  0.73676325  0.00994792  0.23221727    -0.20000
C1788       C  0.74069005  0.03851679  0.23300114     0.20700
C1789       C  0.73037672  0.04707611  0.24984705    -0.02900
C1790       C  0.71660621  0.02710854  0.26588525    -0.05900
C1791       C  0.71332023  0.99867586  0.26509925     0.21000
C1792       C  0.70661363  0.03579442  0.28283940     0.19100
C1793       C  0.71010260  0.06419170  0.28346748    -0.17400
C1794       C  0.72388169  0.08401984  0.26763977    -0.19700
C1795       C  0.73434970  0.07578058  0.25087352     0.20600
C1796       C  0.74932480  0.09597655  0.23536332    -0.32700
C1797       C  0.76038830  0.08791824  0.21874821     0.01300
C1798       C  0.75539223  0.05889157  0.21748962    -0.24000
C1799       C  0.70055603  0.97933548  0.28138500    -0.28600
C1800       C  0.69090563  0.98792108  0.29853736     0.07000
C1801       C  0.69373284  0.01613745  0.29899129    -0.27200
H1802       H  0.72080114  0.96841768  0.24727351     0.11700
H1803       H  0.74450509  0.00298296  0.21940185     0.12800
H1804       H  0.70249095  0.07120898  0.29632919     0.11900
H1805       H  0.72666034  0.10594978  0.26862300     0.11200
H1806       H  0.75281126  0.11818533  0.23641770     0.16500
H1807       H  0.76382883  0.05243637  0.20478527     0.12500
H1808       H  0.69837178  0.95762355  0.28071107     0.15300
H1809       H  0.68639869  0.02305633  0.31205608     0.15100
C1810       C  0.90437509  0.27358134  0.26908700    -0.17800
C1811       C  0.92418343  0.28853253  0.28479075    -0.20000
C1812       C  0.95103495  0.28867292  0.28613663     0.20700
C1813       C  0.95802708  0.27379473  0.27135274    -0.02900
C1814       C  0.93821707  0.25897099  0.25544210    -0.05900
C1815       C  0.91113075  0.25863435  0.25436723     0.21000
C1816       C  0.94550855  0.24433614  0.24067113     0.19100
C1817       C  0.97226834  0.24441922  0.24194365    -0.17400
C1818       C  0.99173169  0.25886906  0.25774753    -0.19700
C1819       C  0.98480013  0.27359216  0.27247021     0.20600
C1820       C  0.00429483  0.28805588  0.28828066    -0.32700
C1821       C  0.99774162  0.30302362  0.30316961     0.01300
C1822       C  0.97098841  0.30328745  0.30196835    -0.24000
C1823       C  0.89131211  0.24322126  0.23866143    -0.28600
C1824       C  0.89863246  0.22871067  0.22386249     0.07000
C1825       C  0.92586293  0.22963202  0.22494100    -0.27200
H1826       H  0.88374890  0.27367174  0.26847434     0.11700
H1827       H  0.91841497  0.29986247  0.29595186     0.12800
H1828       H  0.97810716  0.23319149  0.23073907     0.11900
H1829       H  0.01224304  0.25854615  0.25845109     0.11200
H1830       H  0.02474264  0.28759071  0.28888273     0.16500
H1831       H  0.96565358  0.31473131  0.31331370     0.12500
H1832       H  0.87036564  0.24266402  0.23787126     0.15300
H1833       H  0.93153164  0.21825894  0.21372546     0.15100
C1834       C  0.75092961  0.30062803  0.15069063    -0.17800
C1835       C  0.76648248  0.28540035  0.14950374    -0.20000
C1836       C  0.76118222  0.26310295  0.16340542     0.20700
C1837       C  0.74016454  0.25617381  0.17876243    -0.02900
C1838       C  0.72424583  0.27136234  0.17984356    -0.05900
C1839       C  0.72972448  0.29369417  0.16573976     0.21000
C1840       C  0.70282372  0.26414826  0.19496813     0.19100
C1841       C  0.69774909  0.24200848  0.20897459    -0.17400
C1842       C  0.71372808  0.22711767  0.20801014    -0.19700
C1843       C  0.73494241  0.23398342  0.19294813     0.20600
C1844       C  0.75080864  0.21888549  0.19166671    -0.32700
C1845       C  0.77127820  0.22526702  0.17609218     0.01300
C1846       C  0.77637938  0.24746841  0.16209158    -0.24000
C1847       C  0.71392565  0.30873190  0.16690464    -0.28600
C1848       C  0.69260204  0.30178213  0.18194610     0.07000
C1849       C  0.68699418  0.27929664  0.19585114    -0.27200
H1850       H  0.75540282  0.31775733  0.13978153     0.11700
H1851       H  0.78263170  0.29102719  0.13767145     0.12800
H1852       H  0.68142686  0.23621991  0.22070047     0.11900
H1853       H  0.70938163  0.21011276  0.21899434     0.11200
H1854       H  0.74670411  0.20168989  0.20244496     0.16500
H1855       H  0.79233681  0.25267418  0.15016605     0.12500
H1856       H  0.71804017  0.32574391  0.15596477     0.15300
H1857       H  0.67073846  0.27402229  0.20756513     0.15100
C1858       C  0.97433544  0.10524302  0.17266544    -0.17800
C1859       C  0.95907277  0.12085072  0.17304069    -0.20000
C1860       C  0.92982238  0.10764128  0.16623728     0.20700
C1861       C  0.91579429  0.07837491  0.15899547    -0.02900
C1862       C  0.93137870  0.06276552  0.15833275    -0.05900
C1863       C  0.96073375  0.07625039  0.16525986     0.21000
C1864       C  0.91761270  0.03374188  0.15069882     0.19100
C1865       C  0.88821050  0.02038298  0.14414706    -0.17400
C1866       C  0.87261854  0.03566970  0.14508765    -0.19700
C1867       C  0.88624873  0.06472957  0.15239104     0.20600
C1868       C  0.87088578  0.08037754  0.15317782    -0.32700
C1869       C  0.88482325  0.10971975  0.16018531     0.01300
C1870       C  0.91436682  0.12316487  0.16661332    -0.24000
C1871       C  0.97604556  0.06059939  0.16466553    -0.28600
C1872       C  0.96285729  0.03180978  0.15662846     0.07000
C1873       C  0.93350421  0.01865550  0.14963401    -0.27200
H1874       H  0.99687394  0.11593722  0.17804085     0.11700
H1875       H  0.97015601  0.14327977  0.17871155     0.12800
H1876       H  0.87722339  0.99804737  0.13831258     0.11900
H1877       H  0.84994834  0.02482201  0.13998099     0.11200
H1878       H  0.84816427  0.06979054  0.14817201     0.16500
H1879       H  0.92526290  0.14564015  0.17221474     0.12500
H1880       H  0.99821987  0.07090843  0.17067119     0.15300
H1881       H  0.92300257  0.99679009  0.14306511     0.15100
loop_ 
_geom_bond_atom_site_label_1 
_geom_bond_atom_site_label_2 
_geom_bond_distance 
_geom_bond_site_symmetry_2 
_ccdc_geom_bond_type 
Zn1           O5   1.970       .  S
Zn1           O6   2.017       .  S
Zn1          O10   2.029       .  S
Zn1          O17   2.025       .  S
Zn2           O5   1.968       .  S
Zn2           O7   2.023       .  S
Zn2           O9   2.031       .  S
Zn2          O13   2.026       .  S
Zn3           O5   1.948       .  S
Zn3           O8   2.004       .  S
Zn3          O11   2.004       .  S
Zn3          O14   2.005       .  S
Zn4           O5   1.962       .  S
Zn4          O12   2.046       .  S
Zn4          O15   2.028       .  S
Zn4          O16   2.016       .  S
O6           C18   1.275       .  A
O7           C19   1.275       .  A
O8           C20   1.272       .  A
O9           C18   1.276       .  A
O10          C20   1.273       .  A
O11          C19   1.273       .  A
O12          C21   1.276       .  A
O13          C22   1.274       .  A
O14          C21   1.272       .  A
O15          C22   1.275       .  A
O16          C23   1.276       .  A
O17          C23   1.275       .  A
C18        C1797   1.485       .  S
C19        C1749   1.474       .  S
C20        C1845   1.478       .  S
C21        C1776   1.484       .  S
C22        C1869   1.487       .  S
C23        C1824   1.479       .  S
C24        C1821   1.486   1_455  S
C24          N25   1.365       .  A
C24          N29   1.360       .  A
N25          C26   1.364       .  A
C26        C1725   1.480       .  S
C26          N27   1.356       .  A
N27          C28   1.352       .  A
C28        C1704   1.480       .  S
C28          N29   1.353       .  A
C30        C1800   1.488       .  S
C30          N31   1.359       .  A
C30          N35   1.363       .  A
N31          C32   1.357       .  A
C32        C1656   1.483       .  S
C32          N33   1.357       .  A
N33          C34   1.359       .  A
C34        C1680   1.490       .  S
C34          N35   1.363       .  A
C36        C1773   1.481       .  S
C36          N37   1.362   1_655  A
C36          N41   1.359       .  A
N37          C38   1.362   1_554  A
C38        C1632   1.480       .  S
C38          N39   1.358       .  A
N39          C40   1.357   1_556  A
C40        C1605   1.484       .  S
C40          N41   1.357   1_455  A
C42        C1752   1.475       .  S
C42          N43   1.360   1_545  A
C42          N47   1.359       .  A
N43          C44   1.359   1_554  A
C44        C1581   1.474       .  S
C44          N45   1.356       .  A
N45          C46   1.356   1_556  A
C46        C1560   1.480       .  S
C46          N47   1.357   1_565  A
Zn48         O52   1.945       .  S
Zn48         O53   2.001       .  S
Zn48         O57   2.021       .  S
Zn48         O64   2.012       .  S
Zn49         O52   1.966       .  S
Zn49         O54   2.032       .  S
Zn49         O56   2.039       .  S
Zn49         O60   2.021       .  S
Zn50         O52   1.953       .  S
Zn50         O55   2.013       .  S
Zn50         O58   2.004       .  S
Zn50         O61   1.995       .  S
Zn51         O52   1.965       .  S
Zn51         O59   2.026       .  S
Zn51         O62   2.019       .  S
Zn51         O63   2.033       .  S
O53          C65   1.274       .  A
O54          C66   1.277       .  A
O55          C67   1.272       .  A
O56          C65   1.276       .  A
O57          C67   1.273       .  A
O58          C66   1.272       .  A
O59          C68   1.275       .  A
O60          C69   1.274       .  A
O61          C68   1.272       .  A
O62          C69   1.275       .  A
O63          C70   1.275       .  A
O64          C70   1.274       .  A
C65        C1485   1.477       .  S
C66        C1461   1.483       .  S
C67        C1536   1.483       .  S
C68        C1416   1.479       .  S
C69        C1509   1.479       .  S
C70        C1440   1.479       .  S
Zn71         O75   1.935       .  S
Zn71         O76   1.994       .  S
Zn71         O80   1.984       .  S
Zn71         O87   1.990       .  S
Zn72         O75   1.955       .  S
Zn72         O77   2.008       .  S
Zn72         O79   2.019       .  S
Zn72         O83   1.997       .  S
Zn73         O75   1.964       .  S
Zn73         O78   2.035       .  S
Zn73         O81   2.018       .  S
Zn73         O84   2.022       .  S
Zn74         O75   1.963       .  S
Zn74         O82   2.016       .  S
Zn74         O85   2.032       .  S
Zn74         O86   2.038       .  S
O76          C88   1.270       .  A
O77          C89   1.274       .  A
O78          C90   1.275       .  A
O79          C88   1.272       .  A
O80          C90   1.270       .  A
O81          C89   1.275       .  A
O82          C91   1.274       .  A
O83          C92   1.272       .  A
O84          C91   1.274       .  A
O85          C92   1.276       .  A
O86          C93   1.276       .  A
O87          C93   1.272       .  A
C88        C1392   1.470       .  S
C89        C1341   1.481       .  S
C90        C1584   1.475       .  S
C91        C1293   1.481       .  S
C92        C1317   1.482       .  S
C93        C1368   1.477       .  S
C94        C1464   1.482       .  S
C94          N95   1.362       .  A
C94          N99   1.356       .  A
N95          C96   1.364       .  A
C96        C1320   1.482       .  S
C96          N97   1.359       .  A
N97          C98   1.356       .  A
C98        C1269   1.480       .  S
C98          N99   1.353       .  A
C100       C1245   1.471       .  S
C100        N101   1.358       .  A
C100        N105   1.360       .  A
N101        C102   1.356       .  A
C102       C1221   1.480       .  S
C102        N103   1.355       .  A
N103        C104   1.357       .  A
C104       C1344   1.478       .  S
C104        N105   1.360       .  A
C106       C1197   1.478       .  S
C106        N107   1.357       .  A
C106        N111   1.359   1_554  A
N107        C108   1.355   1_554  A
C108       C1176   1.484       .  S
C108        N109   1.358       .  A
N109        C110   1.361       .  A
C110       C1365   1.478       .  S
C110        N111   1.360       .  A
Zn112       O116   1.971   1_655  S
Zn112       O117   2.030       .  S
Zn112       O121   2.028       .  S
Zn112       O128   2.036       .  S
Zn113       O116   1.943       .  S
Zn113       O118   2.006       .  S
Zn113       O120   2.007       .  S
Zn113       O124   1.993       .  S
Zn114       O116   1.962       .  S
Zn114       O119   1.998       .  S
Zn114       O122   2.032       .  S
Zn114       O125   2.014       .  S
Zn115       O116   1.961   1_655  S
Zn115       O123   2.018       .  S
Zn115       O126   2.029       .  S
Zn115       O127   2.017       .  S
O117        C129   1.275   1_655  A
O118        C130   1.272       .  A
O119        C131   1.273   1_455  A
O120        C129   1.273       .  A
O121        C131   1.276       .  A
O122        C130   1.273       .  A
O123        C132   1.275       .  A
O124        C133   1.271       .  A
O125        C132   1.273   1_455  A
O126        C133   1.275   1_655  A
O127        C134   1.273       .  A
O128        C134   1.275       .  A
C129       C1077   1.478       .  S
C130       C1053   1.482       .  S
C131       C1125   1.481       .  S
C132       C1101   1.480       .  S
C133       C1728   1.471       .  S
C134       C1149   1.483       .  S
Zn135       O139   1.957       .  S
Zn135       O140   2.001       .  S
Zn135       O144   2.004       .  S
Zn135       O151   2.021       .  S
Zn136       O139   1.964       .  S
Zn136       O141   2.019       .  S
Zn136       O143   2.027       .  S
Zn136       O147   2.035       .  S
Zn137       O139   1.971       .  S
Zn137       O142   2.034       .  S
Zn137       O145   2.023       .  S
Zn137       O148   2.046       .  S
Zn138       O139   1.936       .  S
Zn138       O146   1.971       .  S
Zn138       O149   1.991       .  S
Zn138       O150   1.994       .  S
O140        C152   1.272       .  A
O141        C153   1.274       .  A
O142        C154   1.276       .  A
O143        C152   1.277       .  A
O144        C154   1.273       .  A
O145        C153   1.275       .  A
O146        C155   1.270       .  A
O147        C156   1.274       .  A
O148        C155   1.276       .  A
O149        C156   1.270       .  A
O150        C157   1.270       .  A
O151        C157   1.273       .  A
C152        C981   1.481       .  S
C153        C933   1.479       .  S
C154       C1005   1.484       .  S
C155        C960   1.474       .  S
C156       C1200   1.472       .  S
C157       C1029   1.479       .  S
C158       C1488   1.478       .  S
C158        N159   1.361       .  A
C158        N163   1.360       .  A
N159        C160   1.362       .  A
C160        C984   1.480       .  S
C160        N161   1.358       .  A
N161        C162   1.354       .  A
C162       C1653   1.481       .  S
C162        N163   1.355       .  A
C164       C1008   1.484       .  S
C164        N165   1.365       .  A
C164        N169   1.356       .  A
N165        C166   1.365       .  A
C166       C1080   1.479       .  S
C166        N167   1.357       .  A
N167        C168   1.352       .  A
C168        C909   1.477       .  S
C168        N169   1.353       .  A
Zn170       O174   1.970   1_565  S
Zn170       O175   2.026       .  S
Zn170       O179   2.036       .  S
Zn170       O186   2.039       .  S
Zn171       O174   1.968   1_565  S
Zn171       O176   2.054       .  S
Zn171       O178   2.016       .  S
Zn171       O182   2.005       .  S
Zn172       O174   1.935       .  S
Zn172       O177   1.990       .  S
Zn172       O180   1.984       .  S
Zn172       O183   1.993       .  S
Zn173       O174   1.971       .  S
Zn173       O181   2.037       .  S
Zn173       O184   2.021       .  S
Zn173       O185   2.022       .  S
O175        C187   1.275       .  A
O176        C188   1.275   1_565  A
O177        C189   1.272       .  A
O178        C187   1.274       .  A
O179        C189   1.276   1_565  A
O180        C188   1.270       .  A
O181        C190   1.274       .  A
O182        C191   1.275       .  A
O183        C190   1.270       .  A
O184        C191   1.275   1_545  A
O185        C192   1.275   1_545  A
O186        C192   1.277       .  A
C187        C885   1.481       .  S
C188        C837   1.480       .  S
C189       C1248   1.480       .  S
C190        C816   1.477       .  S
C191        C864   1.478       .  S
C192       C1677   1.487       .  S
Zn193       O197   1.944       .  S
Zn193       O198   2.012       .  S
Zn193       O202   1.992       .  S
Zn193       O209   2.007       .  S
Zn194       O197   1.961       .  S
Zn194       O199   2.021       .  S
Zn194       O201   2.022       .  S
Zn194       O205   2.007       .  S
Zn195       O197   1.966       .  S
Zn195       O200   2.037       .  S
Zn195       O203   2.024       .  S
Zn195       O206   2.021       .  S
Zn196       O197   1.966       .  S
Zn196       O204   2.026       .  S
Zn196       O207   2.024       .  S
Zn196       O208   2.036       .  S
O198        C210   1.272       .  A
O199        C211   1.275       .  A
O200        C212   1.275       .  A
O201        C210   1.273       .  A
O202        C212   1.273       .  A
O203        C211   1.276       .  A
O204        C213   1.275       .  A
O205        C214   1.274       .  A
O206        C213   1.275       .  A
O207        C214   1.276       .  A
O208        C215   1.276       .  A
O209        C215   1.273       .  A
C210        C789   1.484       .  S
C211        C741   1.485       .  S
C212        C768   1.473       .  S
C213        C696   1.484       .  S
C214        C717   1.479       .  S
C215       C1629   1.480       .  S
C216       C1413   1.482       .  S
C216        N217   1.362       .  A
C216        N221   1.355       .  A
N217        C218   1.363       .  A
C218        C744   1.480       .  S
C218        N219   1.360       .  A
N219        C220   1.356       .  A
C220        C672   1.479       .  S
C220        N221   1.353       .  A
C222       C1104   1.483       .  S
C222        N223   1.355       .  A
C222        N227   1.362       .  A
N223        C224   1.353       .  A
C224       C1224   1.480       .  S
C224        N225   1.355       .  A
N225        C226   1.360       .  A
C226        C720   1.485       .  S
C226        N227   1.364       .  A
Zn228       O232   1.958       .  S
Zn228       O233   1.984       .  S
Zn228       O237   2.006       .  S
Zn228       O244   2.028       .  S
Zn229       O232   1.965       .  S
Zn229       O234   2.031       .  S
Zn229       O236   2.028       .  S
Zn229       O240   2.027       .  S
Zn230       O232   1.961       .  S
Zn230       O235   2.013       .  S
Zn230       O238   2.011       .  S
Zn230       O241   2.022       .  S
Zn231       O232   1.938       .  S
Zn231       O239   1.981       .  S
Zn231       O242   2.002       .  S
Zn231       O243   2.004       .  S
O233        C245   1.272       .  A
O234        C246   1.275       .  A
O235        C247   1.274       .  A
O236        C245   1.276       .  A
O237        C247   1.273       .  A
O238        C246   1.272       .  A
O239        C248   1.271       .  A
O240        C249   1.275       .  A
O241        C248   1.273       .  A
O242        C249   1.272       .  A
O243        C250   1.272       .  A
O244        C250   1.272       .  A
C245        C597   1.474       .  S
C246        C525   1.482       .  S
C247        C624   1.479       .  S
C248        C573   1.469       .  S
C249        C549   1.479       .  S
C250        C645   1.481       .  S
C251       C1437   1.481       .  S
C251        N252   1.358       .  A
C251        N256   1.361       .  A
N252        C253   1.355       .  A
C253       C1701   1.481       .  S
C253        N254   1.354       .  A
N254        C255   1.358       .  A
C255        C621   1.480       .  S
C255        N256   1.363       .  A
C257        C600   1.480       .  S
C257        N258   1.354       .  A
C257        N262   1.363       .  A
N258        C259   1.350       .  A
C259        C912   1.475       .  S
C259        N260   1.353       .  A
N260        C261   1.360       .  A
C261        C861   1.482       .  S
C261        N262   1.363       .  A
C263        C576   1.474       .  S
C263        N264   1.362       .  A
C263        N268   1.361       .  A
N264        C265   1.360   1_554  A
C265        C765   1.478       .  S
C265        N266   1.356       .  A
N266        C267   1.353   1_556  A
C267       C1173   1.481       .  S
C267        N268   1.355       .  A
Zn269       O273   1.960       .  S
Zn269       O274   2.012       .  S
Zn269       O278   2.012       .  S
Zn269       O285   2.009       .  S
Zn270       O273   1.957       .  S
Zn270       O275   2.024       .  S
Zn270       O277   2.033       .  S
Zn270       O281   2.010       .  S
Zn271       O273   1.940       .  S
Zn271       O276   1.997       .  S
Zn271       O279   2.001       .  S
Zn271       O282   2.013       .  S
Zn272       O273   1.959       .  S
Zn272       O280   2.033       .  S
Zn272       O283   2.017       .  S
Zn272       O284   1.994       .  S
O274        C286   1.273       .  A
O275        C287   1.275       .  A
O276        C288   1.272       .  A
O277        C286   1.275       .  A
O278        C288   1.272       .  A
O279        C287   1.272       .  A
O280        C289   1.274       .  A
O281        C290   1.274       .  A
O282        C289   1.273       .  A
O283        C290   1.274       .  A
O284        C291   1.272       .  A
O285        C291   1.273       .  A
C286        C477   1.484       .  S
C287        C381   1.469       .  S
C288        C408   1.472       .  S
C289        C504   1.479       .  S
C290        C432   1.481       .  S
C291        C456   1.475       .  S
C292        C405   1.472       .  S
C292        N293   1.358       .  A
C292        N297   1.353       .  A
N293        C294   1.361       .  A
C294       C1128   1.478       .  S
C294        N295   1.361       .  A
N295        C296   1.358       .  A
C296       C1272   1.480       .  S
C296        N297   1.353       .  A
C298        C384   1.466       .  S
C298        N299   1.361       .  A
C298        N303   1.356       .  A
N299        C300   1.360       .  A
C300        C840   1.480       .  S
C300        N301   1.358       .  A
N301        C302   1.357       .  A
C302        C669   1.479       .  S
C302        N303   1.355       .  A
C304        C453   1.478       .  S
C304        N305   1.359       .  A
C304        N309   1.361   1_455  A
N305        C306   1.356   1_455  A
C306       C1608   1.481       .  S
C306        N307   1.354   1_556  A
N307        C308   1.356       .  A
C308        C957   1.472       .  S
C308        N309   1.357   1_554  A
C310        C429   1.478       .  S
C310        N311   1.362   1_556  A
C310        N315   1.357       .  A
N311        C312   1.361   1_565  A
C312        C552   1.473       .  S
C312        N313   1.357       .  A
N313        C314   1.355   1_545  A
C314       C1557   1.480       .  S
C314        N315   1.355   1_554  A
C316        C528   1.498       .  S
C316        C317   1.408       .  A
C316        C321   1.407   1_545  A
C317        C318   1.410   1_455  A
C317        H322   1.081       .  S
C318       C1872   1.500       .  S
C318        C319   1.409   1_545  A
C319        C320   1.407       .  A
C319        H323   1.082       .  S
C320        C936   1.493       .  S
C320        C321   1.407   1_655  A
C321        H324   1.081       .  S
C325        C813   1.487       .  S
C325        C326   1.405       .  A
C325        C330   1.403       .  A
C326        C327   1.408       .  A
C326        H331   1.083       .  S
C327       C1152   1.494       .  S
C327        C328   1.409       .  A
C328        C329   1.408       .  A
C328        H332   1.082       .  S
C329       C1512   1.493       .  S
C329        C330   1.407       .  A
C330        H333   1.083       .  S
C334       C1056   1.479       .  S
C334        C335   1.405       .  A
C334        C339   1.402       .  A
C335        C336   1.411       .  A
C335        H340   1.083       .  S
C336        C888   1.493       .  S
C336        C337   1.408       .  A
C337        C338   1.400       .  A
C337        H341   1.083       .  S
C338       C1533   1.473       .  S
C338        C339   1.399       .  A
C339        H342   1.084       .  S
C343       C1296   1.497       .  S
C343        C344   1.410   1_565  A
C343        C348   1.411       .  A
C344        C345   1.407   1_655  A
C344        H349   1.081       .  S
C345        C693   1.496       .  S
C345        C346   1.406       .  A
C346        C347   1.404   1_545  A
C346        H350   1.082       .  S
C347        C501   1.487       .  S
C347        C348   1.404   1_455  A
C348        H351   1.082       .  S
C352       C1389   1.476       .  S
C352        C353   1.403       .  A
C352        C357   1.398       .  A
C353        C354   1.410       .  A
C353        H358   1.082       .  S
C354        C480   1.500       .  S
C354        C355   1.413       .  A
C355        C356   1.404       .  A
C355        H359   1.082       .  S
C356        C792   1.472       .  S
C356        C357   1.398       .  A
C357        H360   1.084       .  S
C361        C648   1.475       .  S
C361        C362   1.405       .  A
C361        C366   1.403       .  A
C362        C363   1.407       .  A
C362        H367   1.084       .  S
C363       C1848   1.483       .  S
C363        C364   1.404       .  A
C364        C365   1.398       .  A
C364        H368   1.084       .  S
C365       C1032   1.470       .  S
C365        C366   1.399       .  A
C366        H369   1.084       .  S
C370        C371   1.398   1_545  A
C370        C375   1.403   1_545  A
C370        H386   1.084       .  S
C371        C372   1.403       .  A
C371        H387   1.083       .  S
C372        C382   1.402       .  A
C372        C373   1.413       .  A
C373        C379   1.411       .  A
C373        C374   1.410       .  A
C374        C376   1.413       .  A
C374        C375   1.412       .  A
C375        C383   1.401   1_565  A
C376        C385   1.402       .  A
C376        C377   1.403       .  A
C377        C378   1.398       .  A
C377        H388   1.083       .  S
C378        C379   1.403       .  A
C378        H389   1.084       .  S
C379        C380   1.401       .  A
C380        C381   1.404       .  A
C380        H390   1.085       .  S
C381        C382   1.403       .  A
C382        H391   1.084       .  S
C383        C384   1.404       .  A
C383        H392   1.085       .  S
C384        C385   1.402   1_545  A
C385        H393   1.084       .  S
C394        C395   1.400       .  A
C394        C399   1.404       .  A
C394        H410   1.084       .  S
C395        C396   1.404       .  A
C395        H411   1.083       .  S
C396        C406   1.404       .  A
C396        C397   1.413       .  A
C397        C403   1.410       .  A
C397        C398   1.409       .  A
C398        C400   1.411       .  A
C398        C399   1.412       .  A
C399        C407   1.403       .  A
C400        C409   1.397       .  A
C400        C401   1.402       .  A
C401        C402   1.395       .  A
C401        H412   1.084       .  S
C402        C403   1.402       .  A
C402        H413   1.084   1_455  S
C403        C404   1.396   1_455  A
C404        C405   1.405       .  A
C404        H414   1.085       .  S
C405        C406   1.405   1_655  A
C406        H415   1.084       .  S
C407        C408   1.406       .  A
C407        H416   1.084       .  S
C408        C409   1.404       .  A
C409        H417   1.084       .  S
C418        C419   1.397       .  A
C418        C423   1.403       .  A
C418        H434   1.084       .  S
C419        C420   1.403       .  A
C419        H435   1.084       .  S
C420        C430   1.398       .  A
C420        C421   1.410       .  A
C421        C427   1.413       .  A
C421        C422   1.411       .  A
C422        C424   1.411       .  A
C422        C423   1.411       .  A
C423        C431   1.400       .  A
C424        C433   1.403       .  A
C424        C425   1.404       .  A
C425        C426   1.400       .  A
C425        H436   1.083       .  S
C426        C427   1.403       .  A
C426        H437   1.084       .  S
C427        C428   1.405       .  A
C428        C429   1.406       .  A
C428        H438   1.084       .  S
C429        C430   1.407       .  A
C430        H439   1.084       .  S
C431        C432   1.407       .  A
C431        H440   1.084       .  S
C432        C433   1.408       .  A
C433        H441   1.084       .  S
C442        C443   1.397       .  A
C442        C447   1.403       .  A
C442        H458   1.084       .  S
C443        C444   1.403       .  A
C443        H459   1.083       .  S
C444        C454   1.401       .  A
C444        C445   1.412       .  A
C445        C451   1.410       .  A
C445        C446   1.409       .  A
C446        C448   1.412       .  A
C446        C447   1.410       .  A
C447        C455   1.398       .  A
C448        C457   1.400       .  A
C448        C449   1.403       .  A
C449        C450   1.397       .  A
C449        H460   1.083       .  S
C450        C451   1.403       .  A
C450        H461   1.084       .  S
C451        C452   1.399       .  A
C452        C453   1.408       .  A
C452        H462   1.084       .  S
C453        C454   1.406       .  A
C454        H463   1.084       .  S
C455        C456   1.406       .  A
C455        H464   1.084       .  S
C456        C457   1.406       .  A
C457        H465   1.084       .  S
C466        C467   1.399       .  A
C466        C471   1.404       .  A
C466        H482   1.083       .  S
C467        C468   1.404       .  A
C467        H483   1.084       .  S
C468        C478   1.403       .  A
C468        C469   1.411       .  A
C469        C475   1.412       .  A
C469        C470   1.413       .  A
C470        C472   1.409       .  A
C470        C471   1.410       .  A
C471        C479   1.405       .  A
C472        C481   1.403       .  A
C472        C473   1.404       .  A
C473        C474   1.399       .  A
C473        H484   1.084       .  S
C474        C475   1.404       .  A
C474        H485   1.083       .  S
C475        C476   1.405       .  A
C476        C477   1.408       .  A
C476        H486   1.083       .  S
C477        C478   1.408       .  A
C478        H487   1.085       .  S
C479        C480   1.411       .  A
C479        H488   1.082       .  S
C480        C481   1.413       .  A
C481        H489   1.083       .  S
C490        C491   1.397       .  A
C490        C495   1.403       .  A
C490        H506   1.084       .  S
C491        C492   1.403       .  A
C491        H507   1.084       .  S
C492        C502   1.401       .  A
C492        C493   1.411       .  A
C493        C499   1.412       .  A
C493        C494   1.413       .  A
C494        C496   1.412       .  A
C494        C495   1.412       .  A
C495        C503   1.401       .  A
C496        C505   1.408       .  A
C496        C497   1.405       .  A
C497        C498   1.402       .  A
C497        H508   1.083       .  S
C498        C499   1.405       .  A
C498        H509   1.083       .  S
C499        C500   1.408       .  A
C500        C501   1.408       .  A
C500        H510   1.084       .  S
C501        C502   1.406       .  A
C502        H511   1.085       .  S
C503        C504   1.405       .  A
C503        H512   1.085       .  S
C504        C505   1.408       .  A
C505        H513   1.084       .  S
C514        C515   1.399       .  A
C514        C519   1.404       .  A
C514        H530   1.083       .  S
C515        C516   1.403       .  A
C515        H531   1.084       .  S
C516        C526   1.403       .  A
C516        C517   1.411       .  A
C517        C523   1.412       .  A
C517        C518   1.413       .  A
C518        C520   1.410       .  A
C518        C519   1.410       .  A
C519        C527   1.404       .  A
C520        C529   1.405       .  A
C520        C521   1.404       .  A
C521        C522   1.400       .  A
C521        H532   1.084       .  S
C522        C523   1.404       .  A
C522        H533   1.083       .  S
C523        C524   1.405       .  A
C524        C525   1.407       .  A
C524        H534   1.084       .  S
C525        C526   1.407       .  A
C526        H535   1.085       .  S
C527        C528   1.411       .  A
C527        H536   1.083       .  S
C528        C529   1.411       .  A
C529        H537   1.084       .  S
C538        C539   1.400       .  A
C538        C543   1.403       .  A
C538        H554   1.084   1_545  S
C539        C540   1.404       .  A
C539        H555   1.083       .  S
C540        C550   1.404       .  A
C540        C541   1.411       .  A
C541        C547   1.412       .  A
C541        C542   1.411       .  A
C542        C544   1.410       .  A
C542        C543   1.413       .  A
C543        C551   1.405       .  A
C544        C553   1.399       .  A
C544        C545   1.403       .  A
C545        C546   1.397       .  A
C545        H556   1.083       .  S
C546        C547   1.403       .  A
C546        H557   1.084       .  S
C547        C548   1.401       .  A
C548        C549   1.407       .  A
C548        H558   1.084       .  S
C549        C550   1.407       .  A
C550        H559   1.084       .  S
C551        C552   1.404       .  A
C551        H560   1.084   1_545  S
C552        C553   1.405       .  A
C553        H561   1.085       .  S
C562        C563   1.401       .  A
C562        C567   1.405       .  A
C562        H578   1.083       .  S
C563        C564   1.404       .  A
C563        H579   1.084       .  S
C564        C574   1.405       .  A
C564        C565   1.413       .  A
C565        C571   1.411       .  A
C565        C566   1.409       .  A
C566        C568   1.411       .  A
C566        C567   1.412       .  A
C567        C575   1.405       .  A
C568        C577   1.396       .  A
C568        C569   1.402       .  A
C569        C570   1.394       .  A
C569        H580   1.084       .  S
C570        C571   1.401       .  A
C570        H581   1.084       .  S
C571        C572   1.394       .  A
C572        C573   1.403       .  A
C572        H582   1.085       .  S
C573        C574   1.405       .  A
C574        H583   1.084       .  S
C575        C576   1.407       .  A
C575        H584   1.084       .  S
C576        C577   1.403       .  A
C577        H585   1.085       .  S
C586        C587   1.397   1_565  A
C586        C591   1.404   1_565  A
C586        H602   1.084       .  S
C587        C588   1.402       .  A
C587        H603   1.084       .  S
C588        C598   1.401       .  A
C588        C589   1.413       .  A
C589        C595   1.409       .  A
C589        C590   1.409       .  A
C590        C592   1.413       .  A
C590        C591   1.408       .  A
C591        C599   1.396   1_545  A
C592        C601   1.403       .  A
C592        C593   1.402       .  A
C593        C594   1.398       .  A
C593        H604   1.084       .  S
C594        C595   1.403       .  A
C594        H605   1.084       .  S
C595        C596   1.398       .  A
C596        C597   1.407       .  A
C596        H606   1.084       .  S
C597        C598   1.404       .  A
C598        H607   1.084       .  S
C599        C600   1.410       .  A
C599        H608   1.084       .  S
C600        C601   1.405   1_565  A
C601        H609   1.084       .  S
C610        C611   1.397       .  A
C610        C615   1.402       .  A
C610        H626   1.084       .  S
C611        C612   1.403       .  A
C611        H627   1.084       .  S
C612        C622   1.398       .  A
C612        C613   1.410       .  A
C613        C619   1.412       .  A
C613        C614   1.410       .  A
C614        C616   1.411       .  A
C614        C615   1.411       .  A
C615        C623   1.400       .  A
C616        C625   1.402       .  A
C616        C617   1.404       .  A
C617        C618   1.399       .  A
C617        H628   1.084       .  S
C618        C619   1.403       .  A
C618        H629   1.084       .  S
C619        C620   1.404       .  A
C620        C621   1.406       .  A
C620        H630   1.084       .  S
C621        C622   1.408       .  A
C622        H631   1.084       .  S
C623        C624   1.406       .  A
C623        H632   1.084       .  S
C624        C625   1.408       .  A
C625        H633   1.084       .  S
C634        C635   1.396       .  A
C634        C639   1.402       .  A
C634        H650   1.084       .  S
C635        C636   1.403       .  A
C635        H651   1.084       .  S
C636        C646   1.399       .  A
C636        C637   1.411       .  A
C637        C643   1.412       .  A
C637        C638   1.412       .  A
C638        C640   1.412       .  A
C638        C639   1.412       .  A
C639        C647   1.399       .  A
C640        C649   1.407       .  A
C640        C641   1.404       .  A
C641        C642   1.402       .  A
C641        H652   1.083       .  S
C642        C643   1.405       .  A
C642        H653   1.083       .  S
C643        C644   1.408       .  A
C644        C645   1.409       .  A
C644        H654   1.084       .  S
C645        C646   1.406       .  A
C646        H655   1.084       .  S
C647        C648   1.403       .  A
C647        H656   1.085       .  S
C648        C649   1.406       .  A
C649        H657   1.084       .  S
C658        C659   1.399       .  A
C658        C663   1.403       .  A
C658        H674   1.084       .  S
C659        C660   1.404       .  A
C659        H675   1.083       .  S
C660        C670   1.402       .  A
C660        C661   1.411       .  A
C661        C667   1.411       .  A
C661        C662   1.409       .  A
C662        C664   1.410       .  A
C662        C663   1.412       .  A
C663        C671   1.403       .  A
C664        C673   1.398       .  A
C664        C665   1.403       .  A
C665        C666   1.396       .  A
C665        H676   1.083       .  S
C666        C667   1.402       .  A
C666        H677   1.084       .  S
C667        C668   1.398       .  A
C668        C669   1.406       .  A
C668        H678   1.084       .  S
C669        C670   1.408       .  A
C670        H679   1.084       .  S
C671        C672   1.407       .  A
C671        H680   1.084       .  S
C672        C673   1.407       .  A
C673        H681   1.084       .  S
C682        C683   1.400       .  A
C682        C687   1.404       .  A
C682        H698   1.084       .  S
C683        C684   1.404       .  A
C683        H699   1.083   1_455  S
C684        C694   1.405       .  A
C684        C685   1.410       .  A
C685        C691   1.410       .  A
C685        C686   1.413       .  A
C686        C688   1.411       .  A
C686        C687   1.412       .  A
C687        C695   1.405       .  A
C688        C697   1.403       .  A
C688        C689   1.403       .  A
C689        C690   1.399       .  A
C689        H700   1.083       .  S
C690        C691   1.403       .  A
C690        H701   1.084       .  S
C691        C692   1.403       .  A
C692        C693   1.410       .  A
C692        H702   1.083       .  S
C693        C694   1.411       .  A
C694        H703   1.083   1_455  S
C695        C696   1.408       .  A
C695        H704   1.084       .  S
C696        C697   1.408       .  A
C697        H705   1.084       .  S
C706        C707   1.399       .  A
C706        C711   1.403       .  A
C706        H722   1.084       .  S
C707        C708   1.404       .  A
C707        H723   1.083       .  S
C708        C718   1.403       .  A
C708        C709   1.411       .  A
C709        C715   1.412       .  A
C709        C710   1.411       .  A
C710        C712   1.410       .  A
C710        C711   1.412       .  A
C711        C719   1.404       .  A
C712        C721   1.400   1_455  A
C712        C713   1.404   1_455  A
C713        C714   1.398   1_655  A
C713        H724   1.083       .  S
C714        C715   1.403       .  A
C714        H725   1.084       .  S
C715        C716   1.402       .  A
C716        C717   1.406       .  A
C716        H726   1.084       .  S
C717        C718   1.408       .  A
C718        H727   1.084       .  S
C719        C720   1.408   1_455  A
C719        H728   1.084       .  S
C720        C721   1.409       .  A
C721        H729   1.084       .  S
C730        C731   1.400       .  A
C730        C735   1.404       .  A
C730        H746   1.083       .  S
C731        C732   1.404       .  A
C731        H747   1.084       .  S
C732        C742   1.405       .  A
C732        C733   1.411       .  A
C733        C739   1.411       .  A
C733        C734   1.412       .  A
C734        C736   1.410       .  A
C734        C735   1.412       .  A
C735        C743   1.406       .  A
C736        C745   1.400       .  A
C736        C737   1.403       .  A
C737        C738   1.398       .  A
C737        H748   1.084       .  S
C738        C739   1.403       .  A
C738        H749   1.083       .  S
C739        C740   1.402       .  A
C740        C741   1.408       .  A
C740        H750   1.084       .  S
C741        C742   1.409       .  A
C742        H751   1.084       .  S
C743        C744   1.407       .  A
C743        H752   1.084       .  S
C744        C745   1.407       .  A
C745        H753   1.085       .  S
C754        C755   1.393       .  A
C754        C759   1.401       .  A
C754        H770   1.084       .  S
C755        C756   1.401       .  A
C755        H771   1.084       .  S
C756        C766   1.394       .  A
C756        C757   1.410       .  A
C757        C763   1.412       .  A
C757        C758   1.410       .  A
C758        C760   1.413       .  A
C758        C759   1.411       .  A
C759        C767   1.394       .  A
C760        C769   1.409       .  A
C760        C761   1.405       .  A
C761        C762   1.403       .  A
C761        H772   1.083       .  S
C762        C763   1.405       .  A
C762        H773   1.083       .  S
C763        C764   1.408       .  A
C764        C765   1.409       .  A
C764        H774   1.084       .  S
C765        C766   1.405       .  A
C766        H775   1.084       .  S
C767        C768   1.402       .  A
C767        H776   1.085       .  S
C768        C769   1.407       .  A
C769        H777   1.084       .  S
C778        C779   1.399       .  A
C778        C783   1.403       .  A
C778        H794   1.083       .  S
C779        C780   1.404       .  A
C779        H795   1.084       .  S
C780        C790   1.404       .  A
C780        C781   1.411       .  A
C781        C787   1.411       .  A
C781        C782   1.412       .  A
C782        C784   1.412       .  A
C782        C783   1.413       .  A
C783        C791   1.404       .  A
C784        C793   1.402       .  A
C784        C785   1.403       .  A
C785        C786   1.399       .  A
C785        H796   1.083       .  S
C786        C787   1.404       .  A
C786        H797   1.084       .  S
C787        C788   1.403       .  A
C788        C789   1.408       .  A
C788        H798   1.084       .  S
C789        C790   1.408       .  A
C790        H799   1.084       .  S
C791        C792   1.403       .  A
C791        H800   1.084       .  S
C792        C793   1.403       .  A
C793        H801   1.084       .  S
C802        C803   1.398       .  A
C802        C807   1.403       .  A
C802        H818   1.083       .  S
C803        C804   1.403       .  A
C803        H819   1.084       .  S
C804        C814   1.402       .  A
C804        C805   1.412       .  A
C805        C811   1.411       .  A
C805        C806   1.412       .  A
C806        C808   1.413       .  A
C806        C807   1.411       .  A
C807        C815   1.401       .  A
C808        C817   1.405       .  A
C808        C809   1.403       .  A
C809        C810   1.400       .  A
C809        H820   1.084       .  S
C810        C811   1.404       .  A
C810        H821   1.083       .  S
C811        C812   1.404       .  A
C812        C813   1.408       .  A
C812        H822   1.084       .  S
C813        C814   1.407       .  A
C814        H823   1.084       .  S
C815        C816   1.407       .  A
C815        H824   1.084       .  S
C816        C817   1.405       .  A
C817        H825   1.084       .  S
C826        C827   1.403       .  A
C826        C831   1.405   1_565  A
C826        H842   1.083       .  S
C827        C828   1.405       .  A
C827        H843   1.084       .  S
C828        C838   1.410       .  A
C828        C829   1.413   1_565  A
C829        C835   1.410       .  A
C829        C830   1.412       .  A
C830        C832   1.411       .  A
C830        C831   1.412       .  A
C831        C839   1.408       .  A
C832        C841   1.398       .  A
C832        C833   1.402       .  A
C833        C834   1.395       .  A
C833        H844   1.084       .  S
C834        C835   1.402       .  A
C834        H845   1.084       .  S
C835        C836   1.397       .  A
C836        C837   1.406       .  A
C836        H846   1.085       .  S
C837        C838   1.408   1_545  A
C838        H847   1.084       .  S
C839        C840   1.408       .  A
C839        H848   1.084   1_545  S
C840        C841   1.405       .  A
C841        H849   1.084       .  S
C850        C851   1.401       .  A
C850        C855   1.405       .  A
C850        H866   1.083       .  S
C851        C852   1.404   1_545  A
C851        H867   1.084       .  S
C852        C862   1.407       .  A
C852        C853   1.412       .  A
C853        C859   1.409       .  A
C853        C854   1.410       .  A
C854        C856   1.411       .  A
C854        C855   1.411   1_565  A
C855        C863   1.406       .  A
C856        C865   1.397       .  A
C856        C857   1.401       .  A
C857        C858   1.395       .  A
C857        H868   1.084       .  S
C858        C859   1.402       .  A
C858        H869   1.083       .  S
C859        C860   1.395       .  A
C860        C861   1.407       .  A
C860        H870   1.084       .  S
C861        C862   1.409       .  A
C862        H871   1.084   1_565  S
C863        C864   1.409   1_545  A
C863        H872   1.084       .  S
C864        C865   1.405       .  A
C865        H873   1.085       .  S
C874        C875   1.399       .  A
C874        C879   1.404       .  A
C874        H890   1.083       .  S
C875        C876   1.404       .  A
C875        H891   1.084       .  S
C876        C886   1.403       .  A
C876        C877   1.411       .  A
C877        C883   1.412       .  A
C877        C878   1.412       .  A
C878        C880   1.410       .  A
C878        C879   1.411       .  A
C879        C887   1.404       .  A
C880        C889   1.402       .  A
C880        C881   1.404       .  A
C881        C882   1.399       .  A
C881        H892   1.084       .  S
C882        C883   1.403       .  A
C882        H893   1.083       .  S
C883        C884   1.404       .  A
C884        C885   1.407       .  A
C884        H894   1.084       .  S
C885        C886   1.408       .  A
C886        H895   1.085       .  S
C887        C888   1.410       .  A
C887        H896   1.083       .  S
C888        C889   1.410       .  A
C889        H897   1.084       .  S
C898        C899   1.395       .  A
C898        C903   1.402       .  A
C898        H914   1.084       .  S
C899        C900   1.402       .  A
C899        H915   1.083       .  S
C900        C910   1.397       .  A
C900        C901   1.411       .  A
C901        C907   1.411       .  A
C901        C902   1.408       .  A
C902        C904   1.412       .  A
C902        C903   1.410       .  A
C903        C911   1.396       .  A
C904        C913   1.402       .  A
C904        C905   1.403       .  A
C905        C906   1.399       .  A
C905        H916   1.083       .  S
C906        C907   1.404       .  A
C906        H917   1.084       .  S
C907        C908   1.402       .  A
C908        C909   1.408       .  A
C908        H918   1.084       .  S
C909        C910   1.406       .  A
C910        H919   1.084       .  S
C911        C912   1.406       .  A
C911        H920   1.084       .  S
C912        C913   1.407       .  A
C913        H921   1.084       .  S
C922        C923   1.400       .  A
C922        C927   1.404       .  A
C922        H938   1.084       .  S
C923        C924   1.404       .  A
C923        H939   1.083       .  S
C924        C934   1.405       .  A
C924        C925   1.412       .  A
C925        C931   1.411       .  A
C925        C926   1.413       .  A
C926        C928   1.411       .  A
C926        C927   1.411       .  A
C927        C935   1.404       .  A
C928        C937   1.403       .  A
C928        C929   1.403       .  A
C929        C930   1.398       .  A
C929        H940   1.083       .  S
C930        C931   1.403       .  A
C930        H941   1.084       .  S
C931        C932   1.402       .  A
C932        C933   1.405       .  A
C932        H942   1.085       .  S
C933        C934   1.408       .  A
C934        H943   1.084       .  S
C935        C936   1.410       .  A
C935        H944   1.084       .  S
C936        C937   1.409       .  A
C937        H945   1.083       .  S
C946        C947   1.393       .  A
C946        C951   1.402       .  A
C946        H962   1.084       .  S
C947        C948   1.401       .  A
C947        H963   1.084       .  S
C948        C958   1.394       .  A
C948        C949   1.411       .  A
C949        C955   1.412       .  A
C949        C950   1.409       .  A
C950        C952   1.413       .  A
C950        C951   1.410       .  A
C951        C959   1.393       .  A
C952        C961   1.408       .  A
C952        C953   1.405       .  A
C953        C954   1.402       .  A
C953        H964   1.083       .  S
C954        C955   1.405       .  A
C954        H965   1.084       .  S
C955        C956   1.407       .  A
C956        C957   1.407       .  A
C956        H966   1.084       .  S
C957        C958   1.402       .  A
C958        H967   1.085       .  S
C959        C960   1.404       .  A
C959        H968   1.085       .  S
C960        C961   1.407       .  A
C961        H969   1.084       .  S
C970        C971   1.401       .  A
C970        C975   1.404       .  A
C970        H986   1.083       .  S
C971        C972   1.405       .  A
C971        H987   1.084       .  S
C972        C982   1.404       .  A
C972        C973   1.410       .  A
C973        C979   1.412       .  A
C973        C974   1.411       .  A
C974        C976   1.410       .  A
C974        C975   1.412       .  A
C975        C983   1.406       .  A
C976        C985   1.397       .  A
C976        C977   1.402       .  A
C977        C978   1.396       .  A
C977        H988   1.084       .  S
C978        C979   1.402       .  A
C978        H989   1.083       .  S
C979        C980   1.400       .  A
C980        C981   1.405       .  A
C980        H990   1.084       .  S
C981        C982   1.410       .  A
C982        H991   1.085       .  S
C983        C984   1.407       .  A
C983        H992   1.083       .  S
C984        C985   1.407       .  A
C985        H993   1.085       .  S
C994        C995   1.400       .  A
C994        C999   1.403       .  A
C994       H1010   1.084       .  S
C995        C996   1.404       .  A
C995       H1011   1.083       .  S
C996       C1006   1.402       .  A
C996        C997   1.409       .  A
C997       C1003   1.413       .  A
C997        C998   1.412       .  A
C998       C1000   1.408   1_655  A
C998        C999   1.413       .  A
C999       C1007   1.407       .  A
C1000      C1009   1.399       .  A
C1000      C1001   1.404       .  A
C1001      C1002   1.398   1_455  A
C1001      H1012   1.084       .  S
C1002      C1003   1.403       .  A
C1002      H1013   1.084   1_655  S
C1003      C1004   1.404       .  A
C1004      C1005   1.407       .  A
C1004      H1014   1.084       .  S
C1005      C1006   1.410       .  A
C1006      H1015   1.084       .  S
C1007      C1008   1.406   1_655  A
C1007      H1016   1.084       .  S
C1008      C1009   1.411       .  A
C1009      H1017   1.084       .  S
C1018      C1019   1.399       .  A
C1018      C1023   1.403       .  A
C1018      H1034   1.084       .  S
C1019      C1020   1.404       .  A
C1019      H1035   1.083       .  S
C1020      C1030   1.402       .  A
C1020      C1021   1.411       .  A
C1021      C1027   1.412       .  A
C1021      C1022   1.410       .  A
C1022      C1024   1.412       .  A
C1022      C1023   1.413       .  A
C1023      C1031   1.402       .  A
C1024      C1033   1.401       .  A
C1024      C1025   1.403       .  A
C1025      C1026   1.398       .  A
C1025      H1036   1.083       .  S
C1026      C1027   1.403       .  A
C1026      H1037   1.084       .  S
C1027      C1028   1.401       .  A
C1028      C1029   1.406       .  A
C1028      H1038   1.084       .  S
C1029      C1030   1.408       .  A
C1030      H1039   1.084       .  S
C1031      C1032   1.403       .  A
C1031      H1040   1.085       .  S
C1032      C1033   1.401       .  A
C1033      H1041   1.084       .  S
C1042      C1043   1.397       .  A
C1042      C1047   1.403       .  A
C1042      H1058   1.084       .  S
C1043      C1044   1.403       .  A
C1043      H1059   1.084       .  S
C1044      C1054   1.401       .  A
C1044      C1045   1.411       .  A
C1045      C1051   1.412       .  A
C1045      C1046   1.413       .  A
C1046      C1048   1.413       .  A
C1046      C1047   1.412       .  A
C1047      C1055   1.401       .  A
C1048      C1057   1.407       .  A
C1048      C1049   1.404       .  A
C1049      C1050   1.401       .  A
C1049      H1060   1.083       .  S
C1050      C1051   1.405       .  A
C1050      H1061   1.083       .  S
C1051      C1052   1.407       .  A
C1052      C1053   1.408       .  A
C1052      H1062   1.084       .  S
C1053      C1054   1.407       .  A
C1054      H1063   1.084       .  S
C1055      C1056   1.404       .  A
C1055      H1064   1.085       .  S
C1056      C1057   1.406       .  A
C1057      H1065   1.084       .  S
C1066      C1067   1.396       .  A
C1066      C1071   1.403       .  A
C1066      H1082   1.084       .  S
C1067      C1068   1.402       .  A
C1067      H1083   1.084       .  S
C1068      C1078   1.400       .  A
C1068      C1069   1.412       .  A
C1069      C1075   1.411   1_455  A
C1069      C1070   1.412       .  A
C1070      C1072   1.413       .  A
C1070      C1071   1.410       .  A
C1071      C1079   1.398       .  A
C1072      C1081   1.408       .  A
C1072      C1073   1.404   1_455  A
C1073      C1074   1.401       .  A
C1073      H1084   1.083       .  S
C1074      C1075   1.405       .  A
C1074      H1085   1.083       .  S
C1075      C1076   1.406       .  A
C1076      C1077   1.408   1_655  A
C1076      H1086   1.084       .  S
C1077      C1078   1.405       .  A
C1078      H1087   1.084       .  S
C1079      C1080   1.407       .  A
C1079      H1088   1.084       .  S
C1080      C1081   1.406       .  A
C1081      H1089   1.084   1_455  S
C1090      C1091   1.396       .  A
C1090      C1095   1.403       .  A
C1090      H1106   1.083       .  S
C1091      C1092   1.402       .  A
C1091      H1107   1.084       .  S
C1092      C1102   1.401       .  A
C1092      C1093   1.412       .  A
C1093      C1099   1.410   1_655  A
C1093      C1094   1.411       .  A
C1094      C1096   1.413   1_655  A
C1094      C1095   1.409       .  A
C1095      C1103   1.397       .  A
C1096      C1105   1.406   1_455  A
C1096      C1097   1.404       .  A
C1097      C1098   1.400       .  A
C1097      H1108   1.084       .  S
C1098      C1099   1.404       .  A
C1098      H1109   1.083       .  S
C1099      C1100   1.404       .  A
C1100      C1101   1.408   1_455  A
C1100      H1110   1.084       .  S
C1101      C1102   1.406       .  A
C1102      H1111   1.084       .  S
C1103      C1104   1.409       .  A
C1103      H1112   1.084       .  S
C1104      C1105   1.407       .  A
C1105      H1113   1.084   1_655  S
C1114      C1115   1.398       .  A
C1114      C1119   1.403   1_455  A
C1114      H1130   1.083       .  S
C1115      C1116   1.403       .  A
C1115      H1131   1.084       .  S
C1116      C1126   1.400       .  A
C1116      C1117   1.410   1_455  A
C1117      C1123   1.412       .  A
C1117      C1118   1.410       .  A
C1118      C1120   1.411       .  A
C1118      C1119   1.412       .  A
C1119      C1127   1.402       .  A
C1120      C1129   1.401       .  A
C1120      C1121   1.403       .  A
C1121      C1122   1.398       .  A
C1121      H1132   1.084       .  S
C1122      C1123   1.403       .  A
C1122      H1133   1.083       .  S
C1123      C1124   1.403       .  A
C1124      C1125   1.407       .  A
C1124      H1134   1.084       .  S
C1125      C1126   1.408   1_655  A
C1126      H1135   1.084       .  S
C1127      C1128   1.406       .  A
C1127      H1136   1.084       .  S
C1128      C1129   1.407       .  A
C1129      H1137   1.084       .  S
C1138      C1139   1.400       .  A
C1138      C1143   1.404       .  A
C1138      H1154   1.083       .  S
C1139      C1140   1.404       .  A
C1139      H1155   1.084       .  S
C1140      C1150   1.406       .  A
C1140      C1141   1.412       .  A
C1141      C1147   1.411       .  A
C1141      C1142   1.414       .  A
C1142      C1144   1.411       .  A
C1142      C1143   1.410       .  A
C1143      C1151   1.405       .  A
C1144      C1153   1.403       .  A
C1144      C1145   1.403       .  A
C1145      C1146   1.399       .  A
C1145      H1156   1.084       .  S
C1146      C1147   1.404       .  A
C1146      H1157   1.083       .  S
C1147      C1148   1.403       .  A
C1148      C1149   1.408       .  A
C1148      H1158   1.084       .  S
C1149      C1150   1.408       .  A
C1150      H1159   1.085       .  S
C1151      C1152   1.410       .  A
C1151      H1160   1.083       .  S
C1152      C1153   1.409       .  A
C1153      H1161   1.084       .  S
C1162      C1163   1.398       .  A
C1162      C1167   1.403       .  A
C1162      H1178   1.084       .  S
C1163      C1164   1.403       .  A
C1163      H1179   1.083       .  S
C1164      C1174   1.400       .  A
C1164      C1165   1.410   1_556  A
C1165      C1171   1.412       .  A
C1165      C1166   1.411       .  A
C1166      C1168   1.410       .  A
C1166      C1167   1.412   1_554  A
C1167      C1175   1.403       .  A
C1168      C1177   1.401       .  A
C1168      C1169   1.404       .  A
C1169      C1170   1.399       .  A
C1169      H1180   1.083       .  S
C1170      C1171   1.403       .  A
C1170      H1181   1.084       .  S
C1171      C1172   1.404       .  A
C1172      C1173   1.407       .  A
C1172      H1182   1.084       .  S
C1173      C1174   1.408   1_554  A
C1174      H1183   1.084       .  S
C1175      C1176   1.407       .  A
C1175      H1184   1.084       .  S
C1176      C1177   1.409   1_556  A
C1177      H1185   1.084       .  S
C1186      C1187   1.400       .  A
C1186      C1191   1.404       .  A
C1186      H1202   1.084       .  S
C1187      C1188   1.404       .  A
C1187      H1203   1.083       .  S
C1188      C1198   1.404       .  A
C1188      C1189   1.412       .  A
C1189      C1195   1.411       .  A
C1189      C1190   1.410       .  A
C1190      C1192   1.411       .  A
C1190      C1191   1.412       .  A
C1191      C1199   1.405       .  A
C1192      C1201   1.399       .  A
C1192      C1193   1.403       .  A
C1193      C1194   1.397       .  A
C1193      H1204   1.084       .  S
C1194      C1195   1.403       .  A
C1194      H1205   1.084       .  S
C1195      C1196   1.399       .  A
C1196      C1197   1.406       .  A
C1196      H1206   1.084       .  S
C1197      C1198   1.407       .  A
C1198      H1207   1.084       .  S
C1199      C1200   1.405       .  A
C1199      H1208   1.084       .  S
C1200      C1201   1.404       .  A
C1201      H1209   1.085       .  S
C1210      C1211   1.398       .  A
C1210      C1215   1.403       .  A
C1210      H1226   1.083       .  S
C1211      C1212   1.403       .  A
C1211      H1227   1.084       .  S
C1212      C1222   1.400       .  A
C1212      C1213   1.410       .  A
C1213      C1219   1.412       .  A
C1213      C1214   1.410       .  A
C1214      C1216   1.410       .  A
C1214      C1215   1.412       .  A
C1215      C1223   1.402       .  A
C1216      C1225   1.399       .  A
C1216      C1217   1.403       .  A
C1217      C1218   1.397       .  A
C1217      H1228   1.084       .  S
C1218      C1219   1.403       .  A
C1218      H1229   1.083       .  S
C1219      C1220   1.401       .  A
C1220      C1221   1.407       .  A
C1220      H1230   1.084       .  S
C1221      C1222   1.408       .  A
C1222      H1231   1.084       .  S
C1223      C1224   1.407       .  A
C1223      H1232   1.084       .  S
C1224      C1225   1.408       .  A
C1225      H1233   1.084       .  S
C1234      C1235   1.401       .  A
C1234      C1239   1.404       .  A
C1234      H1250   1.084       .  S
C1235      C1236   1.404   1_565  A
C1235      H1251   1.083       .  S
C1236      C1246   1.405       .  A
C1236      C1237   1.412       .  A
C1237      C1243   1.412       .  A
C1237      C1238   1.410       .  A
C1238      C1240   1.410       .  A
C1238      C1239   1.412   1_545  A
C1239      C1247   1.406       .  A
C1240      C1249   1.398       .  A
C1240      C1241   1.403       .  A
C1241      C1242   1.396       .  A
C1241      H1252   1.084       .  S
C1242      C1243   1.402       .  A
C1242      H1253   1.084       .  S
C1243      C1244   1.399       .  A
C1244      C1245   1.403       .  A
C1244      H1254   1.085       .  S
C1245      C1246   1.405       .  A
C1246      H1255   1.084   1_545  S
C1247      C1248   1.407   1_565  A
C1247      H1256   1.084       .  S
C1248      C1249   1.407       .  A
C1249      H1257   1.084       .  S
C1258      C1259   1.397       .  A
C1258      C1263   1.403       .  A
C1258      H1274   1.083       .  S
C1259      C1260   1.402       .  A
C1259      H1275   1.084       .  S
C1260      C1270   1.401       .  A
C1260      C1261   1.412       .  A
C1261      C1267   1.410       .  A
C1261      C1262   1.409       .  A
C1262      C1264   1.412       .  A
C1262      C1263   1.409       .  A
C1263      C1271   1.398       .  A
C1264      C1273   1.402       .  A
C1264      C1265   1.403       .  A
C1265      C1266   1.398       .  A
C1265      H1276   1.084       .  S
C1266      C1267   1.404       .  A
C1266      H1277   1.083       .  S
C1267      C1268   1.400       .  A
C1268      C1269   1.409       .  A
C1268      H1278   1.084       .  S
C1269      C1270   1.406       .  A
C1270      H1279   1.084       .  S
C1271      C1272   1.408       .  A
C1271      H1280   1.084       .  S
C1272      C1273   1.406       .  A
C1273      H1281   1.084       .  S
C1282      C1283   1.399       .  A
C1282      C1287   1.404       .  A
C1282      H1298   1.084   1_565  S
C1283      C1284   1.403       .  A
C1283      H1299   1.083       .  S
C1284      C1294   1.404       .  A
C1284      C1285   1.412       .  A
C1285      C1291   1.411       .  A
C1285      C1286   1.412       .  A
C1286      C1288   1.411       .  A
C1286      C1287   1.410       .  A
C1287      C1295   1.403       .  A
C1288      C1297   1.403       .  A
C1288      C1289   1.404       .  A
C1289      C1290   1.399       .  A
C1289      H1300   1.084       .  S
C1290      C1291   1.403       .  A
C1290      H1301   1.083       .  S
C1291      C1292   1.402       .  A
C1292      C1293   1.407       .  A
C1292      H1302   1.084       .  S
C1293      C1294   1.407       .  A
C1294      H1303   1.084       .  S
C1295      C1296   1.412       .  A
C1295      H1304   1.083   1_565  S
C1296      C1297   1.410       .  A
C1297      H1305   1.083       .  S
C1306      C1307   1.398       .  A
C1306      C1311   1.403       .  A
C1306      H1322   1.084       .  S
C1307      C1308   1.403       .  A
C1307      H1323   1.083       .  S
C1308      C1318   1.400       .  A
C1308      C1309   1.410       .  A
C1309      C1315   1.412       .  A
C1309      C1310   1.412       .  A
C1310      C1312   1.410       .  A
C1310      C1311   1.412       .  A
C1311      C1319   1.403       .  A
C1312      C1321   1.402       .  A
C1312      C1313   1.404       .  A
C1313      C1314   1.399       .  A
C1313      H1324   1.083       .  S
C1314      C1315   1.403       .  A
C1314      H1325   1.084       .  S
C1315      C1316   1.404       .  A
C1316      C1317   1.407       .  A
C1316      H1326   1.084       .  S
C1317      C1318   1.409       .  A
C1318      H1327   1.084       .  S
C1319      C1320   1.406       .  A
C1319      H1328   1.084       .  S
C1320      C1321   1.409       .  A
C1321      H1329   1.084       .  S
C1330      C1331   1.397   1_545  A
C1330      C1335   1.403   1_545  A
C1330      H1346   1.084       .  S
C1331      C1332   1.403       .  A
C1331      H1347   1.083       .  S
C1332      C1342   1.400       .  A
C1332      C1333   1.412       .  A
C1333      C1339   1.410       .  A
C1333      C1334   1.410       .  A
C1334      C1336   1.412       .  A
C1334      C1335   1.410       .  A
C1335      C1343   1.398   1_565  A
C1336      C1345   1.404       .  A
C1336      C1337   1.403       .  A
C1337      C1338   1.399       .  A
C1337      H1348   1.083       .  S
C1338      C1339   1.404       .  A
C1338      H1349   1.084       .  S
C1339      C1340   1.402       .  A
C1340      C1341   1.409       .  A
C1340      H1350   1.084       .  S
C1341      C1342   1.407       .  A
C1342      H1351   1.084       .  S
C1343      C1344   1.407       .  A
C1343      H1352   1.084       .  S
C1344      C1345   1.406   1_545  A
C1345      H1353   1.084       .  S
C1354      C1355   1.401       .  A
C1354      C1359   1.404       .  A
C1354      H1370   1.083       .  S
C1355      C1356   1.404       .  A
C1355      H1371   1.083       .  S
C1356      C1366   1.405       .  A
C1356      C1357   1.411       .  A
C1357      C1363   1.412       .  A
C1357      C1358   1.411       .  A
C1358      C1360   1.410       .  A
C1358      C1359   1.413       .  A
C1359      C1367   1.406       .  A
C1360      C1369   1.397       .  A
C1360      C1361   1.403       .  A
C1361      C1362   1.396       .  A
C1361      H1372   1.084       .  S
C1362      C1363   1.402       .  A
C1362      H1373   1.084       .  S
C1363      C1364   1.400       .  A
C1364      C1365   1.405       .  A
C1364      H1374   1.084       .  S
C1365      C1366   1.408       .  A
C1366      H1375   1.084       .  S
C1367      C1368   1.407       .  A
C1367      H1376   1.084       .  S
C1368      C1369   1.406       .  A
C1369      H1377   1.085       .  S
C1378      C1379   1.400       .  A
C1378      C1383   1.404       .  A
C1378      H1394   1.083       .  S
C1379      C1380   1.404       .  A
C1379      H1395   1.084       .  S
C1380      C1390   1.404       .  A
C1380      C1381   1.412       .  A
C1381      C1387   1.412       .  A
C1381      C1382   1.410       .  A
C1382      C1384   1.411       .  A
C1382      C1383   1.412       .  A
C1383      C1391   1.404       .  A
C1384      C1393   1.398       .  A
C1384      C1385   1.402       .  A
C1385      C1386   1.396       .  A
C1385      H1396   1.084       .  S
C1386      C1387   1.402       .  A
C1386      H1397   1.084       .  S
C1387      C1388   1.398       .  A
C1388      C1389   1.404       .  A
C1388      H1398   1.085       .  S
C1389      C1390   1.405       .  A
C1390      H1399   1.084       .  S
C1391      C1392   1.405       .  A
C1391      H1400   1.084       .  S
C1392      C1393   1.403       .  A
C1393      H1401   1.085       .  S
C1402      C1403   1.398       .  A
C1402      C1407   1.403       .  A
C1402      H1418   1.084       .  S
C1403      C1404   1.403       .  A
C1403      H1419   1.083       .  S
C1404      C1414   1.404       .  A
C1404      C1405   1.413       .  A
C1405      C1411   1.409       .  A
C1405      C1406   1.410       .  A
C1406      C1408   1.412       .  A
C1406      C1407   1.410       .  A
C1407      C1415   1.400       .  A
C1408      C1417   1.403       .  A
C1408      C1409   1.403       .  A
C1409      C1410   1.398       .  A
C1409      H1420   1.083       .  S
C1410      C1411   1.404       .  A
C1410      H1421   1.084       .  S
C1411      C1412   1.399       .  A
C1412      C1413   1.410       .  A
C1412      H1422   1.084       .  S
C1413      C1414   1.406       .  A
C1414      H1423   1.084       .  S
C1415      C1416   1.408       .  A
C1415      H1424   1.084       .  S
C1416      C1417   1.406       .  A
C1417      H1425   1.084       .  S
C1426      C1427   1.396       .  A
C1426      C1431   1.402       .  A
C1426      H1442   1.084       .  S
C1427      C1428   1.403       .  A
C1427      H1443   1.083       .  S
C1428      C1438   1.398       .  A
C1428      C1429   1.410       .  A
C1429      C1435   1.412       .  A
C1429      C1430   1.412       .  A
C1430      C1432   1.412       .  A
C1430      C1431   1.411       .  A
C1431      C1439   1.400       .  A
C1432      C1441   1.407       .  A
C1432      C1433   1.405       .  A
C1433      C1434   1.402       .  A
C1433      H1444   1.083       .  S
C1434      C1435   1.404       .  A
C1434      H1445   1.083       .  S
C1435      C1436   1.408       .  A
C1436      C1437   1.408       .  A
C1436      H1446   1.084       .  S
C1437      C1438   1.407       .  A
C1438      H1447   1.084       .  S
C1439      C1440   1.405       .  A
C1439      H1448   1.085       .  S
C1440      C1441   1.408       .  A
C1441      H1449   1.084       .  S
C1450      C1451   1.397       .  A
C1450      C1455   1.403       .  A
C1450      H1466   1.083       .  S
C1451      C1452   1.402       .  A
C1451      H1467   1.084       .  S
C1452      C1462   1.401       .  A
C1452      C1453   1.412       .  A
C1453      C1459   1.410       .  A
C1453      C1454   1.412       .  A
C1454      C1456   1.413       .  A
C1454      C1455   1.409       .  A
C1455      C1463   1.398       .  A
C1456      C1465   1.407       .  A
C1456      C1457   1.404       .  A
C1457      C1458   1.401       .  A
C1457      H1468   1.084       .  S
C1458      C1459   1.405       .  A
C1458      H1469   1.083       .  S
C1459      C1460   1.404       .  A
C1460      C1461   1.411       .  A
C1460      H1470   1.084       .  S
C1461      C1462   1.406       .  A
C1462      H1471   1.085       .  S
C1463      C1464   1.408       .  A
C1463      H1472   1.084       .  S
C1464      C1465   1.407       .  A
C1465      H1473   1.084       .  S
C1474      C1475   1.395       .  A
C1474      C1479   1.402       .  A
C1474      H1490   1.084       .  S
C1475      C1476   1.402       .  A
C1475      H1491   1.084       .  S
C1476      C1486   1.397       .  A
C1476      C1477   1.411       .  A
C1477      C1483   1.412       .  A
C1477      C1478   1.412       .  A
C1478      C1480   1.412       .  A
C1478      C1479   1.411       .  A
C1479      C1487   1.397       .  A
C1480      C1489   1.408       .  A
C1480      C1481   1.405       .  A
C1481      C1482   1.403       .  A
C1481      H1492   1.083       .  S
C1482      C1483   1.405       .  A
C1482      H1493   1.084       .  S
C1483      C1484   1.408       .  A
C1484      C1485   1.408       .  A
C1484      H1494   1.084       .  S
C1485      C1486   1.404       .  A
C1486      H1495   1.085       .  S
C1487      C1488   1.404       .  A
C1487      H1496   1.085       .  S
C1488      C1489   1.408       .  A
C1489      H1497   1.084       .  S
C1498      C1499   1.397       .  A
C1498      C1503   1.403       .  A
C1498      H1514   1.084       .  S
C1499      C1500   1.402       .  A
C1499      H1515   1.083       .  S
C1500      C1510   1.401       .  A
C1500      C1501   1.412       .  A
C1501      C1507   1.411       .  A
C1501      C1502   1.412       .  A
C1502      C1504   1.411       .  A
C1502      C1503   1.410       .  A
C1503      C1511   1.401       .  A
C1504      C1513   1.406       .  A
C1504      C1505   1.405       .  A
C1505      C1506   1.401       .  A
C1505      H1516   1.083       .  S
C1506      C1507   1.404       .  A
C1506      H1517   1.084       .  S
C1507      C1508   1.405       .  A
C1508      C1509   1.408       .  A
C1508      H1518   1.084       .  S
C1509      C1510   1.405       .  A
C1510      H1519   1.084       .  S
C1511      C1512   1.409       .  A
C1511      H1520   1.084       .  S
C1512      C1513   1.411       .  A
C1513      H1521   1.083       .  S
C1522      C1523   1.399       .  A
C1522      C1527   1.404       .  A
C1522      H1538   1.083       .  S
C1523      C1524   1.403       .  A
C1523      H1539   1.084       .  S
C1524      C1534   1.402       .  A
C1524      C1525   1.412       .  A
C1525      C1531   1.412       .  A
C1525      C1526   1.412       .  A
C1526      C1528   1.411       .  A
C1526      C1527   1.411       .  A
C1527      C1535   1.403       .  A
C1528      C1537   1.403       .  A
C1528      C1529   1.404       .  A
C1529      C1530   1.399       .  A
C1529      H1540   1.084       .  S
C1530      C1531   1.403       .  A
C1530      H1541   1.083       .  S
C1531      C1532   1.404       .  A
C1532      C1533   1.404       .  A
C1532      H1542   1.084       .  S
C1533      C1534   1.403       .  A
C1534      H1543   1.085       .  S
C1535      C1536   1.408       .  A
C1535      H1544   1.084       .  S
C1536      C1537   1.408       .  A
C1537      H1545   1.084       .  S
C1546      C1547   1.398       .  A
C1546      C1551   1.403       .  A
C1546      H1562   1.083       .  S
C1547      C1548   1.403       .  A
C1547      H1563   1.084       .  S
C1548      C1558   1.401       .  A
C1548      C1549   1.411   1_545  A
C1549      C1555   1.411   1_554  A
C1549      C1550   1.410       .  A
C1550      C1552   1.411   1_554  A
C1550      C1551   1.411   1_565  A
C1551      C1559   1.402       .  A
C1552      C1561   1.399       .  A
C1552      C1553   1.403       .  A
C1553      C1554   1.397       .  A
C1553      H1564   1.084       .  S
C1554      C1555   1.403       .  A
C1554      H1565   1.083       .  S
C1555      C1556   1.400       .  A
C1556      C1557   1.407   1_556  A
C1556      H1566   1.083       .  S
C1557      C1558   1.407   1_565  A
C1558      H1567   1.084       .  S
C1559      C1560   1.407   1_545  A
C1559      H1568   1.083       .  S
C1560      C1561   1.407   1_554  A
C1561      H1569   1.085       .  S
C1570      C1571   1.397       .  A
C1570      C1575   1.403       .  A
C1570      H1586   1.084       .  S
C1571      C1572   1.403       .  A
C1571      H1587   1.084       .  S
C1572      C1582   1.399       .  A
C1572      C1573   1.411       .  A
C1573      C1579   1.412       .  A
C1573      C1574   1.410       .  A
C1574      C1576   1.413       .  A
C1574      C1575   1.410       .  A
C1575      C1583   1.399       .  A
C1576      C1585   1.404       .  A
C1576      C1577   1.403       .  A
C1577      C1578   1.399       .  A
C1577      H1588   1.084       .  S
C1578      C1579   1.403       .  A
C1578      H1589   1.084       .  S
C1579      C1580   1.403       .  A
C1580      C1581   1.405       .  A
C1580      H1590   1.084       .  S
C1581      C1582   1.406       .  A
C1582      H1591   1.084       .  S
C1583      C1584   1.407       .  A
C1583      H1592   1.084       .  S
C1584      C1585   1.405       .  A
C1585      H1593   1.084       .  S
C1594      C1595   1.398       .  A
C1594      C1599   1.403       .  A
C1594      H1610   1.084       .  S
C1595      C1596   1.403       .  A
C1595      H1611   1.083       .  S
C1596      C1606   1.402       .  A
C1596      C1597   1.411   1_654  A
C1597      C1603   1.411       .  A
C1597      C1598   1.411       .  A
C1598      C1600   1.411       .  A
C1598      C1599   1.410   1_456  A
C1599      C1607   1.400       .  A
C1600      C1609   1.402       .  A
C1600      C1601   1.403       .  A
C1601      C1602   1.398       .  A
C1601      H1612   1.083       .  S
C1602      C1603   1.404       .  A
C1602      H1613   1.084       .  S
C1603      C1604   1.402       .  A
C1604      C1605   1.409   1_556  A
C1604      H1614   1.084       .  S
C1605      C1606   1.408   1_455  A
C1606      H1615   1.084       .  S
C1607      C1608   1.408   1_554  A
C1607      H1616   1.084       .  S
C1608      C1609   1.407   1_655  A
C1609      H1617   1.084       .  S
C1618      C1619   1.399       .  A
C1618      C1623   1.404       .  A
C1618      H1634   1.084       .  S
C1619      C1620   1.403       .  A
C1619      H1635   1.083       .  S
C1620      C1630   1.402       .  A
C1620      C1621   1.411       .  A
C1621      C1627   1.412       .  A
C1621      C1622   1.413       .  A
C1622      C1624   1.412       .  A
C1622      C1623   1.411       .  A
C1623      C1631   1.402       .  A
C1624      C1633   1.405       .  A
C1624      C1625   1.404       .  A
C1625      C1626   1.400       .  A
C1625      H1636   1.083       .  S
C1626      C1627   1.404       .  A
C1626      H1637   1.084       .  S
C1627      C1628   1.405       .  A
C1628      C1629   1.406       .  A
C1628      H1638   1.084       .  S
C1629      C1630   1.407       .  A
C1630      H1639   1.084       .  S
C1631      C1632   1.407       .  A
C1631      H1640   1.084       .  S
C1632      C1633   1.406       .  A
C1633      H1641   1.084       .  S
C1642      C1643   1.398       .  A
C1642      C1647   1.403       .  A
C1642      H1658   1.084       .  S
C1643      C1644   1.403       .  A
C1643      H1659   1.083       .  S
C1644      C1654   1.402       .  A
C1644      C1645   1.411       .  A
C1645      C1651   1.411       .  A
C1645      C1646   1.411       .  A
C1646      C1648   1.411       .  A
C1646      C1647   1.411       .  A
C1647      C1655   1.402       .  A
C1648      C1657   1.403       .  A
C1648      C1649   1.404       .  A
C1649      C1650   1.399       .  A
C1649      H1660   1.083       .  S
C1650      C1651   1.403       .  A
C1650      H1661   1.084       .  S
C1651      C1652   1.402       .  A
C1652      C1653   1.408       .  A
C1652      H1662   1.084       .  S
C1653      C1654   1.407       .  A
C1654      H1663   1.084       .  S
C1655      C1656   1.408       .  A
C1655      H1664   1.084       .  S
C1656      C1657   1.408       .  A
C1657      H1665   1.084       .  S
C1666      C1667   1.400       .  A
C1666      C1671   1.404   1_545  A
C1666      H1682   1.083       .  S
C1667      C1668   1.404       .  A
C1667      H1683   1.084       .  S
C1668      C1678   1.405       .  A
C1668      C1669   1.411   1_545  A
C1669      C1675   1.412       .  A
C1669      C1670   1.414       .  A
C1670      C1672   1.410       .  A
C1670      C1671   1.412       .  A
C1671      C1679   1.407       .  A
C1672      C1681   1.403       .  A
C1672      C1673   1.404       .  A
C1673      C1674   1.399       .  A
C1673      H1684   1.084       .  S
C1674      C1675   1.404       .  A
C1674      H1685   1.083       .  S
C1675      C1676   1.406       .  A
C1676      C1677   1.408       .  A
C1676      H1686   1.083       .  S
C1677      C1678   1.409   1_565  A
C1678      H1687   1.085       .  S
C1679      C1680   1.409       .  A
C1679      H1688   1.083   1_565  S
C1680      C1681   1.410       .  A
C1681      H1689   1.084       .  S
C1690      C1691   1.399       .  A
C1690      C1695   1.404       .  A
C1690      H1706   1.083       .  S
C1691      C1692   1.404       .  A
C1691      H1707   1.084       .  S
C1692      C1702   1.402       .  A
C1692      C1693   1.411       .  A
C1693      C1699   1.411       .  A
C1693      C1694   1.410       .  A
C1694      C1696   1.411       .  A
C1694      C1695   1.411       .  A
C1695      C1703   1.403       .  A
C1696      C1705   1.399       .  A
C1696      C1697   1.403       .  A
C1697      C1698   1.397       .  A
C1697      H1708   1.084       .  S
C1698      C1699   1.403       .  A
C1698      H1709   1.083       .  S
C1699      C1700   1.399       .  A
C1700      C1701   1.407       .  A
C1700      H1710   1.083       .  S
C1701      C1702   1.408       .  A
C1702      H1711   1.084       .  S
C1703      C1704   1.408       .  A
C1703      H1712   1.083       .  S
C1704      C1705   1.407       .  A
C1705      H1713   1.085       .  S
C1714      C1715   1.400       .  A
C1714      C1719   1.404       .  A
C1714      H1730   1.084       .  S
C1715      C1716   1.404       .  A
C1715      H1731   1.084       .  S
C1716      C1726   1.406   1_655  A
C1716      C1717   1.413   1_655  A
C1717      C1723   1.409       .  A
C1717      C1718   1.410       .  A
C1718      C1720   1.412       .  A
C1718      C1719   1.412   1_455  A
C1719      C1727   1.404       .  A
C1720      C1729   1.399       .  A
C1720      C1721   1.402       .  A
C1721      C1722   1.397       .  A
C1721      H1732   1.084       .  S
C1722      C1723   1.403       .  A
C1722      H1733   1.083       .  S
C1723      C1724   1.397       .  A
C1724      C1725   1.409       .  A
C1724      H1734   1.084       .  S
C1725      C1726   1.406       .  A
C1726      H1735   1.084   1_455  S
C1727      C1728   1.404   1_655  A
C1727      H1736   1.084       .  S
C1728      C1729   1.404       .  A
C1729      H1737   1.085       .  S
C1738      C1739   1.397       .  A
C1738      C1743   1.403       .  A
C1738      H1754   1.084       .  S
C1739      C1740   1.403       .  A
C1739      H1755   1.084       .  S
C1740      C1750   1.400       .  A
C1740      C1741   1.411       .  A
C1741      C1747   1.412       .  A
C1741      C1742   1.410       .  A
C1742      C1744   1.412       .  A
C1742      C1743   1.411       .  A
C1743      C1751   1.400       .  A
C1744      C1753   1.403       .  A
C1744      C1745   1.403       .  A
C1745      C1746   1.399       .  A
C1745      H1756   1.084       .  S
C1746      C1747   1.403       .  A
C1746      H1757   1.084       .  S
C1747      C1748   1.403       .  A
C1748      C1749   1.405       .  A
C1748      H1758   1.084       .  S
C1749      C1750   1.405       .  A
C1750      H1759   1.084       .  S
C1751      C1752   1.405       .  A
C1751      H1760   1.084       .  S
C1752      C1753   1.406       .  A
C1753      H1761   1.084       .  S
C1762      C1763   1.402       .  A
C1762      C1767   1.404       .  A
C1762      H1778   1.083       .  S
C1763      C1764   1.404       .  A
C1763      H1779   1.084   1_655  S
C1764      C1774   1.407       .  A
C1764      C1765   1.412       .  A
C1765      C1771   1.411       .  A
C1765      C1766   1.414       .  A
C1766      C1768   1.411       .  A
C1766      C1767   1.412       .  A
C1767      C1775   1.408       .  A
C1768      C1777   1.402       .  A
C1768      C1769   1.403       .  A
C1769      C1770   1.398       .  A
C1769      H1780   1.084       .  S
C1770      C1771   1.403       .  A
C1770      H1781   1.083       .  S
C1771      C1772   1.401       .  A
C1772      C1773   1.407       .  A
C1772      H1782   1.084       .  S
C1773      C1774   1.407       .  A
C1774      H1783   1.084   1_655  S
C1775      C1776   1.408       .  A
C1775      H1784   1.084       .  S
C1776      C1777   1.408       .  A
C1777      H1785   1.084       .  S
C1786      C1787   1.400   1_565  A
C1786      C1791   1.404       .  A
C1786      H1802   1.084       .  S
C1787      C1788   1.404       .  A
C1787      H1803   1.083       .  S
C1788      C1798   1.405       .  A
C1788      C1789   1.412       .  A
C1789      C1795   1.410       .  A
C1789      C1790   1.413       .  A
C1790      C1792   1.412       .  A
C1790      C1791   1.410   1_545  A
C1791      C1799   1.403       .  A
C1792      C1801   1.405       .  A
C1792      C1793   1.403       .  A
C1793      C1794   1.399       .  A
C1793      H1804   1.084       .  S
C1794      C1795   1.404       .  A
C1794      H1805   1.084       .  S
C1795      C1796   1.403       .  A
C1796      C1797   1.408       .  A
C1796      H1806   1.084       .  S
C1797      C1798   1.408       .  A
C1798      H1807   1.084       .  S
C1799      C1800   1.411       .  A
C1799      H1808   1.084       .  S
C1800      C1801   1.408   1_565  A
C1801      H1809   1.084       .  S
C1810      C1811   1.403       .  A
C1810      C1815   1.405       .  A
C1810      H1826   1.083       .  S
C1811      C1812   1.405       .  A
C1811      H1827   1.084       .  S
C1812      C1822   1.409       .  A
C1812      C1813   1.412       .  A
C1813      C1819   1.409       .  A
C1813      C1814   1.412       .  A
C1814      C1816   1.412       .  A
C1814      C1815   1.411       .  A
C1815      C1823   1.408       .  A
C1816      C1825   1.398       .  A
C1816      C1817   1.401       .  A
C1817      C1818   1.395       .  A
C1817      H1828   1.084       .  S
C1818      C1819   1.402       .  A
C1818      H1829   1.083   1_655  S
C1819      C1820   1.396   1_655  A
C1820      C1821   1.408   1_455  A
C1820      H1830   1.084       .  S
C1821      C1822   1.410       .  A
C1822      H1831   1.084       .  S
C1823      C1824   1.409       .  A
C1823      H1832   1.084       .  S
C1824      C1825   1.404       .  A
C1825      H1833   1.085       .  S
C1834      C1835   1.397       .  A
C1834      C1839   1.403       .  A
C1834      H1850   1.083       .  S
C1835      C1836   1.403       .  A
C1835      H1851   1.084       .  S
C1836      C1846   1.400       .  A
C1836      C1837   1.411       .  A
C1837      C1843   1.412       .  A
C1837      C1838   1.412       .  A
C1838      C1840   1.412       .  A
C1838      C1839   1.411       .  A
C1839      C1847   1.400       .  A
C1840      C1849   1.405       .  A
C1840      C1841   1.404       .  A
C1841      C1842   1.401       .  A
C1841      H1852   1.084       .  S
C1842      C1843   1.404       .  A
C1842      H1853   1.083       .  S
C1843      C1844   1.406       .  A
C1844      C1845   1.407       .  A
C1844      H1854   1.084       .  S
C1845      C1846   1.406       .  A
C1846      H1855   1.085       .  S
C1847      C1848   1.406       .  A
C1847      H1856   1.084       .  S
C1848      C1849   1.407       .  A
C1849      H1857   1.084       .  S
C1858      C1859   1.399       .  A
C1858      C1863   1.404       .  A
C1858      H1874   1.083       .  S
C1859      C1860   1.403       .  A
C1859      H1875   1.084       .  S
C1860      C1870   1.404       .  A
C1860      C1861   1.411       .  A
C1861      C1867   1.411       .  A
C1861      C1862   1.414       .  A
C1862      C1864   1.410       .  A
C1862      C1863   1.410       .  A
C1863      C1871   1.404       .  A
C1864      C1873   1.406       .  A
C1864      C1865   1.404       .  A
C1865      C1866   1.401       .  A
C1865      H1876   1.084   1_545  S
C1866      C1867   1.404       .  A
C1866      H1877   1.083       .  S
C1867      C1868   1.406       .  A
C1868      C1869   1.409       .  A
C1868      H1878   1.083       .  S
C1869      C1870   1.408       .  A
C1870      H1879   1.085       .  S
C1871      C1872   1.411       .  A
C1871      H1880   1.083       .  S
C1872      C1873   1.412       .  A
C1873      H1881   1.083   1_545  S
