geometry optimzed in LAMMPS
_audit_creation_date              2020-12-01 
_audit_creation_method            'lammps2cif' 
_symmetry_space_group_name_H-M    'P1' 
_symmetry_Int_Tables_number       1 
_symmetry_cell_setting            triclinic 
loop_ 
_symmetry_equiv_pos_as_xyz 
  x,y,z 
_cell_length_a                    45.17424636 
_cell_length_b                    44.83609889124203 
_cell_length_c                    30.026031407304448 
_cell_angle_alpha                 87.56905156290983 
_cell_angle_beta                  91.3292969754533 
_cell_angle_gamma                 121.06369824301794 
loop_ 
_atom_site_label 
_atom_site_type_symbol 
_atom_site_fract_x 
_atom_site_fract_y 
_atom_site_fract_z 
_atom_site_charge 
O1          O  0.36372871  0.11721693  0.17344678    -0.82100
O2          O  0.45113003  0.04974661  0.21709513    -0.66800
O3          O  0.42490275  0.11630608  0.17921238    -1.13400
C4          C  0.37994687  0.04261575  0.05468383     1.04800
O5          O  0.47193294  0.05624109  0.14949042    -0.80000
O6          O  0.46086463  0.08239998  0.07277577    -0.67600
Ni7        Ni  0.40087847  0.13039152  0.21608171     1.34900
C8          C  0.46429610  0.11226472  0.07060810     0.83500
O9          O  0.45886640  0.10966614  0.25356887    -0.80600
O10         O  0.43621686  0.14426351  0.26092129    -0.90800
C11         C  0.46789314  0.04342855  0.18881592     0.83100
O12         O  0.37369676  0.08877203  0.25159643    -0.69000
O13         O  0.39618632  0.02784381  0.06908017    -0.88300
C14         C  0.37664230  0.06241377  0.25958404     0.83900
C15         C  0.45486592  0.13185811  0.27460200     1.05500
H16         H  0.39118118  0.03906209  0.15801914     0.37300
O17         O  0.41282766  0.05923300  0.14853394    -1.11000
O18         O  0.44544213  0.12012755  0.09276139    -0.67600
Ni19       Ni  0.40238316  0.09292648  0.12587538     1.26300
O20         O  0.39640016  0.05590482  0.23743989    -0.67900
O21         O  0.38049016  0.06809062  0.07309427    -0.80200
C22         C  0.36896881  0.12995359  0.13372361     0.83300
O23         O  0.38967018  0.12701879  0.10853728    -0.67300
Ni24       Ni  0.43340703  0.04219448  0.11030399     1.27400
Ni25       Ni  0.43701092  0.08356861  0.20099272     1.26100
H26         H  0.44619049  0.13737119  0.17088249     0.37800
C27         C  0.48463877  0.17326835  0.38480121     0.79000
N28         N  0.46913519  0.16534706  0.34384570    -0.79300
C29         C  0.47127751  0.14196602  0.31859255     0.81400
N30         N  0.48737279  0.12575047  0.33519802    -0.79300
C31         C  0.00256531  0.13276777  0.37573852     0.81500
N32         N  0.00200898  0.15744671  0.40014655    -0.81000
C33         C  0.32858335  0.02643381  0.36721323     0.79000
N34         N  0.34079098  0.04643515  0.32862665    -0.79300
C35         C  0.35908076  0.03958855  0.29902691     0.81400
N36         N  0.36507063  0.01339483  0.30867578    -0.79300
C37         C  0.34789621  0.49160276  0.34145772     0.81500
N38         N  0.33061338  0.49829977  0.37135525    -0.81000
C39         C  0.02961808  0.16058064  0.97982618     0.79000
N40         N  0.04391562  0.19335254  0.99461556    -0.79300
C41         C  0.03300272  0.19953210  0.03302776     0.81400
N42         N  0.50709280  0.17266744  0.05610789    -0.79300
C43         C  0.49248742  0.13974033  0.04279491     0.81500
N44         N  0.00387123  0.13333556  0.00443093    -0.81000
C45         C  0.36083234  0.03053886  0.01324793     0.79000
N46         N  0.36401410  0.50730938  0.98944116    -0.79300
C47         C  0.34712404  0.49738489  0.95004172     0.81400
N48         N  0.32862785  0.51146964  0.93442220    -0.79300
C49         C  0.32655506  0.53547060  0.95783822     0.81500
N50         N  0.34216821  0.04444474  0.99711844    -0.81000
O51         O  0.20234591  0.28871573  0.50730135    -0.82100
O52         O  0.28733163  0.21301160  0.54159791    -0.66800
O53         O  0.25996439  0.27950589  0.50466491    -1.13400
C54         C  0.20791339  0.19995191  0.38832957     1.04800
O55         O  0.30849379  0.21859505  0.47444138    -0.80000
O56         O  0.29606367  0.24893697  0.40223208    -0.67600
Ni57       Ni  0.24024506  0.29629870  0.54569903     1.34900
C58         C  0.29322712  0.27545901  0.39660533     0.83500
O59         O  0.29861209  0.27296255  0.57454643    -0.80600
O60         O  0.27625884  0.30652491  0.58770919    -0.90800
C61         C  0.30582277  0.20790050  0.51484648     0.83100
O62         O  0.21044616  0.25333112  0.57729668    -0.69000
O63         O  0.23165124  0.19289841  0.39513477    -0.88300
C64         C  0.21039508  0.22503528  0.58154604     0.83900
C65         C  0.29664061  0.29543213  0.59658312     1.05500
H66         H  0.22654649  0.20025797  0.48645580     0.37300
O67         O  0.24692210  0.22123863  0.47577602    -1.11000
O68         O  0.27058045  0.27925729  0.41582034    -0.67600
Ni69       Ni  0.23234566  0.25280388  0.45574079     1.26300
O70         O  0.23256943  0.21984532  0.56307211    -0.67900
O71         O  0.20516122  0.22308320  0.40847636    -0.80200
C72         C  0.20378511  0.29671699  0.46602104     0.83300
O73         O  0.21762634  0.28614794  0.43882912    -0.67300
Ni74       Ni  0.26920515  0.20667036  0.43590016     1.27400
Ni75       Ni  0.27300312  0.24655962  0.52543703     1.26100
H76         H  0.28056555  0.29985965  0.49297265     0.37800
O77         O  0.25184462  0.38234549  0.81020803    -0.82100
O78         O  0.41166330  0.45075720  0.77467036    -0.66800
O79         O  0.31737178  0.38820988  0.81473949    -1.13400
C80         C  0.35133750  0.47443286  0.92201156     1.04800
O81         O  0.43058115  0.45175957  0.84323887    -0.80000
O82         O  0.38964491  0.42531510  0.91774908    -0.67600
Ni83       Ni  0.27919168  0.37172164  0.77341810     1.34900
C84         C  0.35971714  0.39944725  0.92598111     0.83500
O85         O  0.35917364  0.38773914  0.74853887    -0.80600
O86         O  0.30196867  0.35820860  0.73368403    -0.90800
C87         C  0.43681441  0.45945943  0.80188553     0.83100
O88         O  0.29353700  0.41396824  0.73922584    -0.69000
O89         O  0.38220283  0.48149795  0.91606776    -0.88300
C90         C  0.32302451  0.44100066  0.73281883     0.83900
C91         C  0.33257032  0.36475343  0.72817498     1.05500
H92         H  0.36635821  0.46818246  0.82505327     0.37300
O93         O  0.36574220  0.44797861  0.83855325    -1.11000
O94         O  0.33260254  0.39411633  0.90475927    -0.67600
Ni95       Ni  0.31957489  0.41775276  0.86025697     1.26300
O96         O  0.35078198  0.44476079  0.75048367    -0.67900
O97         O  0.32441408  0.45015258  0.90325038    -0.80200
C98         C  0.24596419  0.37429627  0.85135669     0.83300
O99         O  0.27136725  0.38534334  0.87874360    -0.67300
Ni100      Ni  0.40441702  0.46536145  0.87870056     1.27400
Ni101      Ni  0.36356062  0.41897619  0.79266424     1.26100
H102        H  0.31652621  0.36792469  0.82856504     0.37800
C103        C  0.33654698  0.34287918  0.69811814     0.79000
N104        N  0.31625437  0.33115747  0.66157879    -0.79300
C105        C  0.31851098  0.30863002  0.63535759     0.81400
N106        N  0.34015864  0.29713951  0.64641396    -0.79300
C107        C  0.35959840  0.30784879  0.68371435     0.81500
N108        N  0.35797641  0.33117605  0.70919527    -0.81000
C109        C  0.30926937  0.49594121  0.64634347     0.79000
N110        N  0.30602954  0.46709810  0.66896101    -0.79300
C111        C  0.32522027  0.47082843  0.70654724     0.81400
N112        N  0.34672492  0.50305354  0.72152128    -0.79300
C113        C  0.34331113  0.03245974  0.70205221     0.81500
N114        N  0.32451445  0.02788856  0.66414308    -0.81000
C115        C  0.37206607  0.35438306  0.02697312     0.79000
N116        N  0.37952870  0.37928462  0.99369218    -0.79300
C117        C  0.35491854  0.37385576  0.96208045     0.81400
N118        N  0.32374332  0.34419988  0.96435269    -0.79300
C119        C  0.31632607  0.31994032  0.99712066     0.81500
N120        N  0.34059465  0.32490306  0.02791649    -0.81000
O121        O  0.09240977  0.30744573  0.50497403    -0.82100
O122        O  0.43733988  0.22394958  0.54935079    -0.66800
O123        O  0.02823476  0.24701651  0.51286447    -1.13400
C124        C  0.99323332  0.28193411  0.37829020     1.04800
O125        O  0.42045652  0.19492220  0.48787758    -0.80000
O126        O  0.45579091  0.19972169  0.41328620    -0.67600
Ni127      Ni  0.06804329  0.27075094  0.54941360     1.34900
C128        C  0.48407589  0.20026022  0.41094622     0.83500
O129        O  0.48852840  0.21581305  0.58899533    -0.80600
O130        O  0.04576948  0.23510854  0.59524321    -0.90800
C131        C  0.41286550  0.20337612  0.52373075     0.83100
O132        O  0.05691952  0.29909303  0.58305474    -0.69000
O133        O  0.46238159  0.26195909  0.39202193    -0.88300
C134        C  0.02863313  0.29806935  0.58846764     0.83900
C135        C  0.01456336  0.21735025  0.60917641     1.05500
H136        H  0.48312617  0.27804335  0.48187209     0.37300
O137        O  0.48221311  0.25642030  0.47696518    -1.11000
O138        O  0.01198492  0.22354521  0.42875952    -0.67600
Ni139      Ni  0.02631742  0.26749660  0.45613902     1.26300
O140        O  0.50157475  0.27960237  0.56469010    -0.67900
O141        O  0.02036205  0.28627120  0.39934784    -0.80200
C142        C  0.09848405  0.30137334  0.46621875     0.83300
O143        O  0.07345576  0.28144061  0.44079955    -0.67300
Ni144      Ni  0.44261675  0.22902554  0.44074222     1.27400
Ni145      Ni  0.48425799  0.23626832  0.53376201     1.26100
H146        H  0.02622977  0.22494058  0.50755063     0.37800
O147        O  0.38588124  0.24562012  0.17044262    -0.82100
O148        O  0.45303955  0.40413709  0.20930123    -0.66800
O149        O  0.38987301  0.31023222  0.17245869    -1.13400
C150        C  0.47252025  0.34759078  0.05594685     1.04800
O151        O  0.44978916  0.42335611  0.14151375    -0.80000
O152        O  0.42532890  0.38597523  0.06551039    -0.67600
Ni153      Ni  0.37611001  0.27064039  0.21261497     1.34900
C154        C  0.39778988  0.35687641  0.06049846     0.83500
O155        O  0.39331672  0.34945038  0.24418230    -0.80600
O156        O  0.36377593  0.29122165  0.25768991    -0.90800
C157        C  0.45921030  0.42941899  0.18207918     0.83100
O158        O  0.41962633  0.28531997  0.24149139    -0.69000
O159        O  0.48137803  0.37885521  0.06432302    -0.88300
C160        C  0.44646943  0.31509551  0.24653985     0.83900
C161        C  0.37178739  0.32200238  0.26665463     1.05500
H162        H  0.46805794  0.35939917  0.15293775     0.37300
O163        O  0.44769861  0.35953139  0.14265271    -1.11000
O164        O  0.39110837  0.32905929  0.08269831    -0.67600
Ni165      Ni  0.41646185  0.31411332  0.12137121     1.26300
O166        O  0.44961687  0.34324888  0.22978469    -0.67900
O167        O  0.44651786  0.32017611  0.07317091    -0.80200
C168        C  0.37470140  0.24038768  0.13061201     0.83300
O169        O  0.38313900  0.26647771  0.10381055    -0.67300
Ni170      Ni  0.46459865  0.39964188  0.10343714     1.27400
Ni171      Ni  0.42132712  0.35595995  0.19350173     1.26100
H172        H  0.36906380  0.30958566  0.16248636     0.37800
C173        C  0.35448891  0.32610159  0.30441861     0.79000
N174        N  0.35739410  0.35731483  0.30903715    -0.79300
C175        C  0.34014785  0.36172336  0.34171047     0.81400
N176        N  0.32026412  0.33510039  0.37027949    -0.79300
C177        C  0.31709946  0.30375775  0.36641780     0.81500
N178        N  0.33407930  0.29891317  0.33311997    -0.81000
C179        C  0.49762046  0.30114769  0.33565135     0.79000
N180        N  0.02993671  0.32366662  0.32124408    -0.79300
C181        C  0.03590136  0.34273601  0.28296879     0.81400
N182        N  0.00859309  0.34000118  0.25925211    -0.79300
C183        C  0.47565436  0.31723338  0.27277459     0.81500
N184        N  0.47013601  0.29755681  0.31114799    -0.81000
O185        O  0.31006658  0.09336298  0.47318203    -0.82100
O186        O  0.22700346  0.43464664  0.43548289    -0.66800
O187        O  0.25125158  0.02723448  0.46841249    -1.13400
C188        C  0.28559815  0.99209810  0.60451213     1.04800
O189        O  0.20165046  0.41484480  0.50071003    -0.80000
O190        O  0.20631075  0.45325643  0.56999125    -0.67600
Ni191      Ni  0.27470892  0.06748669  0.42970103     1.34900
C192        C  0.20743828  0.48207639  0.57111288     0.83500
O193        O  0.21832837  0.48638077  0.39583079    -0.80600
O194        O  0.24079725  0.04501884  0.38394428    -0.90800
C195        C  0.20797732  0.40893214  0.46218980     0.83100
O196        O  0.30422110  0.05615885  0.39939011    -0.69000
O197        O  0.26913532  0.46156467  0.59193739    -0.88300
C198        C  0.30400671  0.02786557  0.39702111     0.83900
C199        C  0.22239107  0.01371113  0.37140176     1.05500
H200        H  0.28311236  0.48099165  0.49825152     0.37300
O201        O  0.26196156  0.48019745  0.50537696    -1.10400
O202        O  0.22913151  0.01172117  0.55266831    -0.67600
Ni203      Ni  0.27201592  0.02512890  0.52453844     1.26300
O204        O  0.28216079  0.49966530  0.41771600    -0.67900
O205        O  0.29100393  0.01945663  0.58150553    -0.80200
C206        C  0.30405930  0.09809520  0.51270335     0.83300
O207        O  0.28552849  0.07220372  0.53900482    -0.67300
Ni208      Ni  0.23634875  0.44027096  0.54469067     1.27400
Ni209      Ni  0.23990239  0.48215673  0.45045585     1.26100
H210        H  0.22952317  0.02552500  0.47457903     0.37800
O211        O  0.05550353  0.07758378  0.84244521    -0.82100
O212        O  0.12699191  0.23631915  0.87691030    -0.66800
O213        O  0.06008724  0.14240197  0.84261098    -1.13400
C214        C  0.12941046  0.17579804  0.71033468     1.04800
O215        O  0.12405356  0.25695291  0.80980645    -0.80000
O216        O  0.08471583  0.21452669  0.74397802    -0.67600
Ni217      Ni  0.04390177  0.10277363  0.88257458     1.34900
C218        C  0.05746087  0.18477515  0.74094476     0.83500
O219        O  0.06673621  0.18234459  0.91607890    -0.80600
O220        O  0.03022538  0.12412721  0.92552502    -0.90800
C221        C  0.13520239  0.26224361  0.84970137     0.83100
O222        O  0.08536760  0.11745567  0.91616389    -0.69000
O223        O  0.13850299  0.20682242  0.71998566    -0.88300
C224        C  0.11310646  0.14677736  0.91937941     0.83900
C225        C  0.04281965  0.15538821  0.93768342     1.05500
H226        H  0.13762824  0.19120025  0.81635509     0.37300
O227        O  0.11658574  0.19072245  0.80812059    -1.11000
O228        O  0.05463869  0.15663338  0.75635545    -0.67600
Ni229      Ni  0.08410414  0.14453078  0.78922102     1.26300
O230        O  0.11984902  0.17393431  0.89599702    -0.67900
O231        O  0.10917704  0.14903946  0.73500346    -0.80200
C232        C  0.04514909  0.07168459  0.80217379     0.83300
O233        O  0.05112583  0.09678771  0.77510257    -0.67300
Ni234      Ni  0.12984065  0.22940542  0.76696180     1.27400
Ni235      Ni  0.09259342  0.18813417  0.86196057     1.26100
H236        H  0.03953786  0.14278459  0.83404045     0.37800
C237        C  0.14345460  0.17139809  0.66819208     0.79000
N238        N  0.13199308  0.13897344  0.65284161    -0.79300
C239        C  0.14531823  0.13498117  0.61467202     0.81400
N240        N  0.17063820  0.16347671  0.59315419    -0.79300
C241        C  0.18233742  0.19576411  0.60728546     0.81500
N242        N  0.16853692  0.19995645  0.64479529    -0.81000
C243        C  0.00821551  0.19795109  0.65149412     0.79000
N244        N  0.03476148  0.20139418  0.67710111    -0.79300
C245        C  0.02835477  0.18265179  0.71600161     0.81400
N246        N  0.99514341  0.16039984  0.72935747    -0.79300
C247        C  0.46840452  0.15789723  0.70435920     0.81500
N248        N  0.47544252  0.17639606  0.66532704    -0.81000
O249        O  0.07715879  0.04787729  0.13536649    -0.82100
O250        O  0.23679096  0.12040768  0.10051203    -0.66800
O251        O  0.14211575  0.05332430  0.13501106    -1.13400
C252        C  0.16838555  0.12704135  0.25852097     1.04800
O253        O  0.25531090  0.12322208  0.17019203    -0.80000
O254        O  0.21342974  0.08842754  0.24010519    -0.67600
Ni255      Ni  0.10357001  0.03775927  0.09530916     1.34900
C256        C  0.18591200  0.05873356  0.24189978     0.83500
O257        O  0.18384769  0.05893630  0.06420388    -0.80600
O258        O  0.12603240  0.02573499  0.05225388    -0.90800
C259        C  0.26167280  0.13089964  0.12893848     0.83100
O260        O  0.11822035  0.08040831  0.06218718    -0.69000
O261        O  0.20008998  0.14072318  0.24808192    -0.88300
C262        C  0.14793979  0.10729688  0.05624925     0.83900
C263        C  0.15730027  0.03684412  0.04161987     1.05500
H264        H  0.18660237  0.13145903  0.15414254     0.37300
O265        O  0.18790777  0.11170127  0.16558828    -1.11000
O266        O  0.15797985  0.05170036  0.22178763    -0.67600
Ni267      Ni  0.14239589  0.07758279  0.18607583     1.26300
O268        O  0.17508133  0.11251403  0.07685741    -0.67900
O269        O  0.14361227  0.10257976  0.23722891    -0.80200
C270        C  0.07087472  0.03711760  0.17588614     0.83300
O271        O  0.09550694  0.04255399  0.20221618    -0.67300
Ni272      Ni  0.22554660  0.13060501  0.20718724     1.27400
Ni273      Ni  0.18805298  0.08613336  0.11541333     1.26100
H274        H  0.14205733  0.03255419  0.14510027     0.37800
C275        C  0.16054504  0.13968949  0.29846126     0.79000
N276        N  0.12777033  0.12376121  0.31480858    -0.79300
C277        C  0.12131665  0.13397019  0.35368857     0.81400
N278        N  0.14771720  0.16080248  0.37499746    -0.79300
C279        C  0.18017689  0.17686320  0.35910184     0.81500
N280        N  0.18683009  0.16573536  0.32141362    -0.81000
C281        C  0.20320688  0.00835931  0.32921206     0.79000
N282        N  0.20556682  0.03596315  0.30499230    -0.79300
C283        C  0.18604577  0.03032043  0.26755922     0.81400
N284        N  0.16436850  0.49701246  0.25587493    -0.79300
C285        C  0.16184227  0.46937006  0.27905007     0.81500
N286        N  0.18055077  0.47480772  0.31720874    -0.81000
C287        C  0.13819492  0.15094397  0.95397336     0.79000
N288        N  0.13008081  0.12661303  0.98776427    -0.79300
C289        C  0.15269286  0.13363970  0.02223149     0.81400
N290        N  0.18284991  0.16441052  0.02245494    -0.79300
C291        C  0.19091290  0.18835178  0.98908140     0.81500
N292        N  0.16843501  0.18180461  0.95519474    -0.81000
O293        O  0.12699508  0.36674604  0.80663919    -0.82100
O294        O  0.05378396  0.44872251  0.75960543    -0.66800
O295        O  0.12229850  0.42630755  0.79964399    -1.13400
C296        C  0.04661476  0.38045984  0.92487806     1.04800
O297        O  0.06344799  0.47298127  0.82443784    -0.80000
O298        O  0.08854675  0.46314209  0.90271551    -0.67600
Ni299      Ni  0.13957076  0.40462593  0.76387048     1.34900
C300        C  0.11757792  0.46532081  0.90605239     0.83500
O301        O  0.11401064  0.45856426  0.72312796    -0.80600
O302        O  0.15254196  0.44056586  0.71919819    -0.90800
C303        C  0.04900192  0.46731070  0.78659561     0.83100
O304        O  0.10012694  0.37581469  0.72810253    -0.69000
O305        O  0.03363951  0.39842298  0.91053611    -0.88300
C306        C  0.07158968  0.37448431  0.72286146     0.83900
C307        C  0.13802611  0.45683406  0.70372653     1.05500
H308        H  0.04472090  0.39090953  0.82282852     0.37300
O309        O  0.06483935  0.41282310  0.83055569    -1.11000
O310        O  0.12494118  0.44553885  0.88553396    -0.67600
Ni311      Ni  0.09819805  0.40269738  0.85355361     1.26300
O312        O  0.06349543  0.39382653  0.74357055    -0.67900
O313        O  0.07185554  0.38009144  0.90664606    -0.80200
C314        C  0.13750763  0.37106737  0.84679663     0.83300
O315        O  0.13209789  0.39016709  0.87173716    -0.67300
Ni316      Ni  0.04873546  0.43522053  0.86688942     1.27400
Ni317      Ni  0.08862386  0.43639161  0.77659701     1.26100
H318        H  0.14226032  0.44832887  0.80742291     0.37800
C319        C  0.02506140  0.31554518  0.62741110     0.79000
N320        N  0.05215954  0.33735416  0.65458352    -0.79300
C321        C  0.04529804  0.34854086  0.69296214     0.81400
N322        N  0.01245027  0.33702009  0.70393754    -0.79300
C323        C  0.48594174  0.31506993  0.67851668     0.81500
N324        N  0.99236827  0.30479538  0.64004198    -0.81000
C325        C  0.14871849  0.47320114  0.65980901     0.79000
N326        N  0.16998387  0.46764833  0.63497869    -0.79300
C327        C  0.18018877  0.48343017  0.59418879     0.81400
N328        N  0.16595335  0.00668403  0.57952587    -0.79300
C329        C  0.14377595  0.01053732  0.60546976     0.81500
N330        N  0.13727840  0.49394104  0.64362965    -0.81000
C331        C  0.03222572  0.35985515  0.96575616     0.79000
N332        N  0.00814320  0.36215830  0.98918926    -0.79300
C333        C  0.49570130  0.34318425  0.02782267     0.81400
N334        N  0.50838902  0.32325336  0.04361943    -0.79300
C335        C  0.03336376  0.32194977  0.02105835     0.81500
N336        N  0.04461759  0.33987853  0.98182782    -0.81000
C337        C  0.16293517  0.02455506  0.99949644     0.79000
N338        N  0.13621724  0.00029804  0.97431855    -0.79300
C339        C  0.14459533  0.49268732  0.93384586     0.81400
N340        N  0.17772453  0.50757909  0.92047921    -0.79300
C341        C  0.20254552  0.02991198  0.94552906     0.81500
N342        N  0.19563123  0.03910678  0.98457371    -0.81000
C343        C  0.48388821  0.02209308  0.19906592     0.79000
N344        N  0.46426908  0.48587985  0.19866336    -0.79300
C345        C  0.47968723  0.46653571  0.19528314     0.81400
N346        N  0.01475790  0.48340204  0.19150952    -0.79300
C347        C  0.03455925  0.01926824  0.19132600     0.81500
N348        N  0.01881045  0.03803648  0.19447850    -0.81000
C349        C  0.32349061  0.18826228  0.52841028     0.79000
N350        N  0.35893241  0.20520695  0.53092852    -0.79300
C351        C  0.37551050  0.18675530  0.53410289     0.81400
N352        N  0.35650837  0.15160920  0.53129250    -0.79300
C353        C  0.32163293  0.13426980  0.52795910     0.81500
N354        N  0.30525881  0.15277330  0.52575249    -0.81000
C355        C  0.18689212  0.31693667  0.45137983     0.79000
N356        N  0.15164374  0.30033594  0.45311412    -0.79300
C357        C  0.13511967  0.31867029  0.45205801     0.81400
N358        N  0.15428851  0.35404057  0.45145754    -0.79300
C359        C  0.18938671  0.37162412  0.44939706     0.81500
N360        N  0.20562421  0.35278301  0.45089723    -0.81000
C361        C  0.02791196  0.48366960  0.77705740     0.79000
N362        N  0.04430765  0.01854885  0.78301894    -0.79300
C363        C  0.02656220  0.03516852  0.78763661     0.81400
N364        N  0.49142218  0.01598937  0.78990945    -0.79300
C365        C  0.47394392  0.48021636  0.78729758     0.81500
N366        N  0.49261737  0.46433475  0.78157295    -0.81000
C367        C  0.15551658  0.35281106  0.86266264     0.79000
N368        N  0.19073542  0.37076497  0.86362820    -0.79300
C369        C  0.20871427  0.35390025  0.86531813     0.81400
N370        N  0.19050022  0.31810288  0.86389432    -0.79300
C371        C  0.15496862  0.29947755  0.86349582     0.81500
N372        N  0.13814238  0.31742060  0.86129006    -0.81000
C373        C  0.35145384  0.14904259  0.11907990     0.79000
N374        N  0.36992968  0.18446278  0.11880842    -0.79300
C375        C  0.35404114  0.20332958  0.11674282     0.81400
N376        N  0.31851809  0.18580581  0.11655650    -0.79300
C377        C  0.29923110  0.15002571  0.11604297     0.81500
N378        N  0.31620949  0.13214002  0.11912249    -0.81000
C379        C  0.11087234  0.07035688  0.62330641    -0.10400
C380        C  0.13617042  0.10003661  0.59977467     0.05800
C381        C  0.15503821  0.09545124  0.56609650    -0.04200
C382        C  0.15401567  0.06392862  0.56435087    -0.08600
C383        C  0.13350303  0.03634273  0.59408584     0.04900
C384        C  0.10869871  0.03835802  0.61974004    -0.03600
Br385      Br  0.07216896  0.99905623  0.65211197    -0.03300
H386        H  0.09395893  0.07230188  0.64646397     0.08800
H387        H  0.17155008  0.06213145  0.54213449     0.06900
Br388      Br  0.18443598  0.13038409  0.52246605    -0.03800
C389        C  0.07707517  0.39533879  0.23851527    -0.10400
C390        C  0.07176111  0.36986970  0.27130676     0.05800
C391        C  0.10059472  0.37396352  0.29625692    -0.04200
C392        C  0.13147400  0.40586980  0.29440629    -0.08600
C393        C  0.13462646  0.43369199  0.26756600     0.04900
C394        C  0.10835527  0.42692240  0.23575706    -0.03600
Br395      Br  0.11152938  0.45909953  0.18892504    -0.03300
H396        H  0.05614249  0.39179682  0.21670498     0.08800
H397        H  0.15229509  0.40952552  0.31652753     0.06900
Br398      Br  0.10035249  0.33860352  0.33524653    -0.03800
C399        C  0.28385639  0.25648891  0.00845628    -0.10400
C400        C  0.28354784  0.28686269  0.99649359     0.05800
C401        C  0.25259285  0.28458643  0.98170189    -0.04200
C402        C  0.22270996  0.25201677  0.97887547    -0.08600
C403        C  0.22315797  0.22172209  0.99075462     0.04900
C404        C  0.25406922  0.22399281  0.00540211    -0.03600
Br405      Br  0.25821330  0.18394054  0.01829895    -0.03300
H406        H  0.30767792  0.25790532  0.01883805     0.08800
H407        H  0.19884606  0.25038273  0.96817859     0.06900
Br408      Br  0.24863939  0.32455402  0.96713554    -0.03800
C409        C  0.42495566  0.10608440  0.74904413    -0.10400
C410        C  0.43197659  0.13153319  0.71531714     0.05800
C411        C  0.40410306  0.12795833  0.68852548    -0.04200
C412        C  0.37303657  0.09621869  0.68888836    -0.08600
C413        C  0.36875246  0.06812102  0.71612491     0.04900
C414        C  0.39317299  0.07477741  0.75048935    -0.03600
Br415      Br  0.38560415  0.04276863  0.79967809    -0.03300
H416        H  0.44485133  0.10943251  0.77265189     0.08800
H417        H  0.35329667  0.09283106  0.66497514     0.06900
Br418      Br  0.40613015  0.16366568  0.64845713    -0.03800
C419        C  0.41124218  0.31821133  0.72491405    -0.10400
C420        C  0.38619661  0.29893950  0.69292939     0.05800
C421        C  0.39111901  0.27695049  0.66569757    -0.04200
C422        C  0.42338836  0.28026047  0.66473219    -0.08600
C423        C  0.45065952  0.30494938  0.69057514     0.04900
C424        C  0.44354922  0.32190573  0.72384023    -0.03600
Br425      Br  0.47617210  0.35373794  0.76616056    -0.03300
H426        H  0.40713068  0.33346955  0.74829753     0.08800
H427        H  0.42763978  0.26503703  0.64142816     0.06900
Br428      Br  0.35623549  0.24304630  0.62765591    -0.03800
C429        C  0.27976166  0.02867311  0.90645265    -0.10400
C430        C  0.30217296  0.04649195  0.94175013     0.05800
C431        C  0.29691740  0.56971082  0.96726731    -0.04200
C432        C  0.26579116  0.56867451  0.96173265    -0.08600
C433        C  0.23869672  0.04255329  0.93389418     0.04900
C434        C  0.24783726  0.02605036  0.90250823    -0.03600
Br435      Br  0.21775268  0.99612790  0.85689870    -0.03300
H436        H  0.28512683  0.01334913  0.88473546     0.08800
H437        H  0.26032006  0.58388451  0.98353860     0.06900
Br438      Br  0.32777980  0.60014163  0.01181939    -0.03800
C439        C  0.06861751  0.26269567  0.01672091    -0.10400
C440        C  0.04433050  0.23547873  0.04456546     0.05800
C441        C  0.52632722  0.24291168  0.07603160    -0.04200
C442        C  0.52657077  0.27395328  0.07119900    -0.08600
C443        C  0.04479508  0.29783557  0.03621058     0.04900
C444        C  0.06923149  0.29399942  0.01239370    -0.03600
Br445      Br  0.10260807  0.32859995  0.97143251    -0.03300
H446        H  0.08493892  0.25859842  0.99502182     0.08800
H447        H  0.50985892  0.27775645  0.09251870     0.06900
Br448      Br  0.49812851  0.21168969  0.12376324    -0.03800
C449        C  0.31585265  0.42895623  0.35520973    -0.10400
C450        C  0.34750457  0.45926422  0.34559866     0.05800
C451        C  0.37702084  0.45765187  0.33702268    -0.04200
C452        C  0.37415344  0.42534446  0.33676706    -0.08600
C453        C  0.34222176  0.39485365  0.34503843     0.04900
C454        C  0.31281195  0.39666249  0.35465530    -0.03600
Br455      Br  0.26716380  0.35658843  0.36282543    -0.03300
H456        H  0.29298325  0.43030215  0.36110834     0.08800
H457        H  0.39688815  0.42400373  0.32995327     0.06900
Br458      Br  0.42172626  0.49854968  0.32695413    -0.03800
C459        C  0.02538568  0.09536927  0.35642982    -0.10400
C460        C  0.02477686  0.11812770  0.38698797     0.05800
C461        C  0.05154338  0.13301866  0.41854875    -0.04200
C462        C  0.08208639  0.13352662  0.41055979    -0.08600
C463        C  0.08597585  0.11922377  0.37165937     0.04900
C464        C  0.05595302  0.09606852  0.34805447    -0.03600
Br465      Br  0.05487848  0.06710881  0.30189501    -0.03300
H466        H  0.00346050  0.08034448  0.33482897     0.08800
H467        H  0.10379790  0.14818881  0.43258636     0.06900
Br468      Br  0.04932140  0.15511577  0.47071451    -0.03800
O469        O  0.36469634  0.61808081  0.17385975    -0.82100
O470        O  0.45092816  0.54949581  0.21837778    -0.66800
O471        O  0.42561494  0.61671799  0.17918852    -1.13400
C472        C  0.38023378  0.54247483  0.05529992     1.04800
O473        O  0.47181082  0.55545835  0.15091272    -0.80000
O474        O  0.46155799  0.58212224  0.07417934    -0.67600
Ni475      Ni  0.40235821  0.63196845  0.21564892     1.34900
C476        C  0.46469801  0.61185664  0.07134179     0.83500
O477        O  0.45887759  0.60994711  0.25421608    -0.80600
O478        O  0.43812423  0.64637123  0.25974473    -0.90800
C479        C  0.46762790  0.54279524  0.19033241     0.83100
O480        O  0.37530473  0.59117557  0.25243943    -0.69000
O481        O  0.39670467  0.52790398  0.06953698    -0.88300
C482        C  0.37693233  0.56400996  0.25966945     0.83900
C483        C  0.45563108  0.63295801  0.27442288     1.05500
H484        H  0.39144155  0.53915157  0.15873468     0.37300
O485        O  0.41310855  0.55927257  0.14920221    -1.11000
O486        O  0.44550487  0.61970714  0.09272782    -0.67600
Ni487      Ni  0.40265637  0.59293066  0.12626672     1.26300
O488        O  0.39615273  0.55678899  0.23742856    -0.67900
O489        O  0.38046701  0.56772336  0.07389924    -0.80200
C490        C  0.36950064  0.63038024  0.13399632     0.83300
O491        O  0.38986542  0.62703089  0.10860657    -0.67300
Ni492      Ni  0.43357335  0.54186959  0.11131877     1.27400
Ni493      Ni  0.43723220  0.58374452  0.20161418     1.26100
H494        H  0.44704264  0.63748440  0.17050834     0.37800
C495        C  0.48403587  0.67360812  0.38515289     0.79000
N496        N  0.46931026  0.66626408  0.34372124    -0.79300
C497        C  0.47136178  0.64271348  0.31873573     0.81400
N498        N  0.48648063  0.62576719  0.33602579    -0.79300
C499        C  0.00100755  0.63227342  0.37692539     0.81500
N500        N  0.00063335  0.65713381  0.40116799    -0.81000
C501        C  0.32707748  0.52625262  0.36581853     0.79000
N502        N  0.34085836  0.54785779  0.32871749    -0.79300
C503        C  0.35796041  0.54048556  0.29783508     0.81400
N504        N  0.36114640  0.51232614  0.30469109    -0.79300
C505        C  0.35344156  0.99424361  0.34708037     0.81500
N506        N  0.33495983  0.00056151  0.37564545    -0.81000
C507        C  0.02977691  0.66047755  0.98045147     0.79000
N508        N  0.04416765  0.69315648  0.99561564    -0.79300
C509        C  0.03347402  0.69912140  0.03438718     0.81400
N510        N  0.50769200  0.67215038  0.05743350    -0.79300
C511        C  0.49298692  0.63932306  0.04374047     0.81500
N512        N  0.00415746  0.63310355  0.00505408    -0.81000
C513        C  0.36115945  0.53049175  0.01381015     0.79000
N514        N  0.36371313  0.00726388  0.98912219    -0.79300
C515        C  0.34684883  0.99715765  0.94976245     0.81400
N516        N  0.32833917  0.01115416  0.93390804    -0.79300
C517        C  0.32619263  0.03522029  0.95706887     0.81500
N518        N  0.34255018  0.54449497  0.99786970    -0.81000
O519        O  0.20293671  0.78988893  0.50728712    -0.82100
O520        O  0.29107953  0.71712520  0.54117711    -0.66800
O521        O  0.26108679  0.78143263  0.50317715    -1.13400
C522        C  0.20709515  0.69967813  0.38958883     1.04800
O523        O  0.30872824  0.71808779  0.47317247    -0.80000
O524        O  0.29595520  0.74906501  0.40245352    -0.67600
Ni525      Ni  0.24168682  0.79840523  0.54455355     1.34900
C526        C  0.29321302  0.77564460  0.39665740     0.83500
O527        O  0.30331958  0.77852732  0.57031289    -0.80600
O528        O  0.27859335  0.80965826  0.58533090    -0.90800
C529        C  0.30735281  0.70932105  0.51416167     0.83100
O530        O  0.21293634  0.75584396  0.57772527    -0.69000
O531        O  0.23111795  0.69304700  0.39587000    -0.88300
C532        C  0.21495665  0.72877645  0.58374093     0.83900
C533        C  0.30045578  0.80024960  0.59282587     1.05500
H534        H  0.22792861  0.70148849  0.48909838     0.37300
O535        O  0.24774743  0.72224895  0.47664580    -1.11000
O536        O  0.27010457  0.77924781  0.41494899    -0.67600
Ni537      Ni  0.23240649  0.75331239  0.45596463     1.26300
O538        O  0.23755701  0.72442743  0.56495087    -0.67900
O539        O  0.20426045  0.72259684  0.41004949    -0.80200
C540        C  0.20363982  0.79722304  0.46587927     0.83300
O541        O  0.21700975  0.78614216  0.43863195    -0.67300
Ni542      Ni  0.26895829  0.70673960  0.43599349     1.27400
Ni543      Ni  0.27580621  0.74982562  0.52397501     1.26100
H544        H  0.28107821  0.80184549  0.49040052     0.37800
O545        O  0.25191442  0.88234930  0.80883888    -0.82100
O546        O  0.41196487  0.95389765  0.77323859    -0.66800
O547        O  0.31806092  0.88970516  0.81256283    -1.13400
C548        C  0.35128617  0.97431374  0.92183189     1.04800
O549        O  0.43009704  0.95201889  0.84151343    -0.80000
O550        O  0.38989748  0.92577187  0.91658252    -0.67600
Ni551      Ni  0.27978836  0.87282492  0.77145236     1.34900
C552        C  0.36013394  0.89952187  0.92426711     0.83500
O553        O  0.36038696  0.89173628  0.74516062    -0.80600
O554        O  0.30314480  0.86045671  0.73106842    -0.90800
C555        C  0.43670645  0.96063457  0.80038866     0.83100
O556        O  0.29327102  0.91509279  0.73796187    -0.69000
O557        O  0.38228905  0.98182466  0.91553821    -0.88300
C558        C  0.32222586  0.94293345  0.73228312     0.83900
C559        C  0.33410497  0.86833961  0.72489610     1.05500
H560        H  0.36641640  0.96970667  0.82516738     0.37300
O561        O  0.36582457  0.94924565  0.83778476    -1.11000
O562        O  0.33305719  0.89405353  0.90277961    -0.67600
Ni563      Ni  0.31981753  0.91822504  0.85920158     1.26300
O564        O  0.35037973  0.94761810  0.74993663    -0.67900
O565        O  0.32438030  0.94980233  0.90326990    -0.80200
C566        C  0.24625927  0.87421481  0.85001174     0.83300
O567        O  0.27171845  0.88522076  0.87729467    -0.67300
Ni568      Ni  0.40445913  0.96586806  0.87771999     1.27400
Ni569      Ni  0.36401289  0.92153469  0.79062074     1.26100
H570        H  0.31780071  0.86952174  0.82570773     0.37800
C571        C  0.33905556  0.84734282  0.69461432     0.79000
N572        N  0.31968357  0.83623260  0.65730945    -0.79300
C573        C  0.32247463  0.81397790  0.63120426     0.81400
N574        N  0.34355670  0.80199534  0.64320942    -0.79300
C575        C  0.36191468  0.81198680  0.68138795     0.81500
N576        N  0.35987972  0.83512900  0.70671896    -0.81000
C577        C  0.30461524  0.99585704  0.64720956     0.79000
N578        N  0.30330899  0.96769687  0.66915368    -0.79300
C579        C  0.32288422  0.97227023  0.70664288     0.81400
N580        N  0.34282696  0.00463761  0.72221053    -0.79300
C581        C  0.34942121  0.53164479  0.70063527     0.81500
N582        N  0.33089106  0.52793796  0.66264395    -0.81000
C583        C  0.37245605  0.85420321  0.02528083     0.79000
N584        N  0.37994267  0.87923403  0.99209838    -0.79300
C585        C  0.35550889  0.87370540  0.96008508     0.81400
N586        N  0.32451839  0.84382519  0.96188483    -0.79300
C587        C  0.31707754  0.81947308  0.99453268     0.81500
N588        N  0.34113458  0.82455575  0.02572071    -0.81000
O589        O  0.09198912  0.80832329  0.50365620    -0.82100
O590        O  0.43783142  0.72373110  0.55054146    -0.66800
O591        O  0.02855895  0.74761410  0.51267292    -1.13400
C592        C  0.99247477  0.78257812  0.37890939     1.04800
O593        O  0.42060209  0.69516977  0.48866409    -0.80000
O594        O  0.45537150  0.70035834  0.41336503    -0.67600
Ni595      Ni  0.06862901  0.77191184  0.54854209     1.34900
C596        C  0.48356905  0.70070951  0.41110218     0.83500
O597        O  0.48974839  0.71617398  0.58937382    -0.80600
O598        O  0.04725600  0.73643217  0.59458029    -0.90800
C599        C  0.41325395  0.70338534  0.52490472     0.83100
O600        O  0.05734019  0.80000103  0.58252577    -0.69000
O601        O  0.46168129  0.76269124  0.39295293    -0.88300
C602        C  0.02891233  0.79856468  0.58852998     0.83900
C603        C  0.01624819  0.71826947  0.60905226     1.05500
H604        H  0.48302016  0.77829830  0.48281169     0.37300
O605        O  0.48207742  0.75669669  0.47763854    -1.11000
O606        O  0.01150532  0.72388074  0.42892295    -0.67600
Ni607      Ni  0.02602686  0.76788918  0.45609292     1.26300
O608        O  0.50168266  0.77968453  0.56528911    -0.67900
O609        O  0.01963501  0.78660183  0.39952334    -0.80200
C610        C  0.09804866  0.80177310  0.46520424     0.83300
O611        O  0.07296544  0.78173970  0.43997614    -0.67300
Ni612      Ni  0.44229560  0.72947633  0.44159406     1.27400
Ni613      Ni  0.48468634  0.73647954  0.53425929     1.26100
H614        H  0.02678290  0.72564812  0.50731392     0.37800
O615        O  0.38511380  0.74589710  0.17180762    -0.82100
O616        O  0.45264592  0.90493220  0.20858461    -0.66800
O617        O  0.38933041  0.81082046  0.17270616    -1.13400
C618        C  0.47254837  0.84710021  0.05700580     1.04800
O619        O  0.44954776  0.92362721  0.14039307    -0.80000
O620        O  0.42548875  0.88588298  0.06449842    -0.67600
Ni621      Ni  0.37560870  0.77152446  0.21340455     1.34900
C622        C  0.39790793  0.85680793  0.05949531     0.83500
O623        O  0.39304611  0.85074583  0.24418564    -0.80600
O624        O  0.36360806  0.79260503  0.25816395    -0.90800
C625        C  0.45901804  0.93000305  0.18090813     0.83100
O626        O  0.41920635  0.78636151  0.24215402    -0.69000
O627        O  0.48145112  0.87847232  0.06484372    -0.88300
C628        C  0.44600242  0.81618993  0.24712001     0.83900
C629        C  0.37184771  0.82345078  0.26715508     1.05500
H630        H  0.46752329  0.85966261  0.15332059     0.37300
O631        O  0.44723019  0.85980926  0.14276126    -1.11000
O632        O  0.39096395  0.82911255  0.08230165    -0.67600
Ni633      Ni  0.41606710  0.81429583  0.12191958     1.26300
O634        O  0.44911321  0.84424798  0.23009450    -0.67900
O635        O  0.44636000  0.81987763  0.07424882    -0.80200
C636        C  0.37440595  0.74058352  0.13177437     0.83300
O637        O  0.38286037  0.76656452  0.10478043    -0.67300
Ni638      Ni  0.46448247  0.89963668  0.10306845     1.27400
Ni639      Ni  0.42084786  0.85671190  0.19338259     1.26100
H640        H  0.36854651  0.81012065  0.16248623     0.37800
C641        C  0.35565975  0.82763783  0.30617567     0.79000
N642        N  0.36130047  0.85960410  0.31425288    -0.79300
C643        C  0.34560258  0.86408984  0.34893119     0.81400
N644        N  0.32438612  0.83662888  0.37569082    -0.79300
C645        C  0.31831055  0.80454003  0.36814241     0.81500
N646        N  0.33397464  0.79979132  0.33319987    -0.81000
C647        C  0.49689425  0.80214355  0.33649683     0.79000
N648        N  0.02925025  0.82488933  0.32239934    -0.79300
C649        C  0.03538176  0.84423260  0.28434021     0.81400
N650        N  0.00815013  0.84151349  0.26044350    -0.79300
C651        C  0.47514827  0.81850299  0.27363544     0.81500
N652        N  0.46949555  0.79857777  0.31183059    -0.81000
O653        O  0.30984257  0.59407593  0.47378356    -0.82100
O654        O  0.22682168  0.93482704  0.43485046    -0.66800
O655        O  0.25199744  0.52705508  0.47026092    -1.13400
C656        C  0.28999077  0.49253354  0.60391323     1.04800
O657        O  0.19903801  0.91571244  0.49865291    -0.80000
O658        O  0.20272577  0.95447826  0.56815566    -0.67600
Ni659      Ni  0.27425730  0.56727103  0.43106175     1.34900
C660        C  0.20447156  0.98365608  0.56929433     0.83500
O661        O  0.21972797  0.98712798  0.39319204    -0.80600
O662        O  0.24010955  0.54427187  0.38569308    -0.90800
C663        C  0.20680537  0.90934161  0.46124794     0.83100
O664        O  0.30414058  0.55659002  0.40035870    -0.69000
O665        O  0.26454496  0.96111517  0.59262612    -0.88300
C666        C  0.30339857  0.52810460  0.39675859     0.83900
C667        C  0.22117343  0.51289996  0.37368617     1.05500
H668        H  0.28088401  0.98043822  0.49971551     0.37300
O669        O  0.25970836  0.98002887  0.50540029    -1.10400
O670        O  0.23180376  0.51053755  0.55484621    -0.67600
Ni671      Ni  0.27432053  0.52522748  0.52526621     1.26300
O672        O  0.28286687  0.99963010  0.41849089    -0.67900
O673        O  0.29478246  0.51985721  0.58132236    -0.80200
C674        C  0.30448603  0.59843878  0.51378647     0.83300
O675        O  0.28740841  0.57225427  0.54047008    -0.67300
Ni676      Ni  0.23254356  0.94037978  0.54427693     1.27400
Ni677      Ni  0.23958259  0.98240385  0.44905962     1.26100
H678        H  0.23041504  0.52526373  0.47760092     0.37800
O679        O  0.05494477  0.57706354  0.84294562    -0.82100
O680        O  0.12719269  0.73642585  0.87844897    -0.66800
O681        O  0.06101050  0.64258871  0.84277648    -1.13400
C682        C  0.13550313  0.67772786  0.71464378     1.04800
O683        O  0.12434500  0.75639580  0.81107417    -0.80000
O684        O  0.08941308  0.71568586  0.74213422    -0.67600
Ni685      Ni  0.04402505  0.60281238  0.88289905     1.34900
C686        C  0.06189454  0.68617239  0.73928394     0.83500
O687        O  0.06643449  0.68248937  0.91619659    -0.80600
O688        O  0.03063723  0.62427261  0.92602196    -0.90800
C689        C  0.13551873  0.76214952  0.85087428     0.83100
O690        O  0.08548452  0.61700287  0.91644714    -0.69000
O691        O  0.14456925  0.70865933  0.72458519    -0.88300
C692        C  0.11299762  0.64644387  0.92046681     0.83900
C693        C  0.04287225  0.65547788  0.93804600     1.05500
H694        H  0.13913583  0.69139726  0.81962431     0.37300
O695        O  0.11836906  0.69109861  0.81030570    -1.11000
O696        O  0.05824492  0.65800586  0.75609371    -0.67600
Ni697      Ni  0.08652521  0.64516652  0.79043596     1.26300
O698        O  0.11958772  0.67391979  0.89804429    -0.67900
O699        O  0.11357277  0.65053226  0.73759712    -0.80200
C700        C  0.04551629  0.57175948  0.80229938     0.83300
O701        O  0.05359032  0.59742124  0.77505217    -0.67300
Ni702      Ni  0.13315377  0.73029997  0.76956739     1.27400
Ni703      Ni  0.09311201  0.68830800  0.86290855     1.26100
H704        H  0.04064804  0.64298130  0.83318921     0.37800
C705        C  0.15159416  0.67410367  0.67401340     0.79000
N706        N  0.14413018  0.64202477  0.66164355    -0.79300
C707        C  0.15905606  0.63887569  0.62458620     0.81400
N708        N  0.18096514  0.66753450  0.60033123    -0.79300
C709        C  0.18906286  0.69947148  0.61173712     0.81500
N710        N  0.17426393  0.70305628  0.64873142    -0.81000
C711        C  0.01091958  0.69914804  0.65145646     0.79000
N712        N  0.03820083  0.70278127  0.67579301    -0.79300
C713        C  0.03272859  0.68422369  0.71471597     0.81400
N714        N  0.99995783  0.66219229  0.72927024    -0.79300
C715        C  0.47259929  0.65933955  0.70568066     0.81500
N716        N  0.47845177  0.67752884  0.66652044    -0.81000
O717        O  0.07686806  0.54711315  0.13603204    -0.82100
O718        O  0.23708260  0.62086357  0.10173375    -0.66800
O719        O  0.14235464  0.55337564  0.13547016    -1.13400
C720        C  0.16813695  0.62647982  0.25984543     1.04800
O721        O  0.25533452  0.62287897  0.17144829    -0.80000
O722        O  0.21334108  0.58796962  0.24148185    -0.67600
Ni723      Ni  0.10393702  0.53808569  0.09550883     1.34900
C724        C  0.18583177  0.55827069  0.24305912     0.83500
O725        O  0.18453544  0.55989695  0.06431302    -0.80600
O726        O  0.12684317  0.52711260  0.05161494    -0.90800
C727        C  0.26184835  0.63087067  0.13024372     0.83100
O728        O  0.11844034  0.58117465  0.06372833    -0.69000
O729        O  0.19990204  0.64017797  0.24957475    -0.88300
C730        C  0.14819612  0.60797640  0.05769365     0.83900
C731        C  0.15815811  0.53829298  0.04108117     1.05500
H732        H  0.18667401  0.63133972  0.15564625     0.37300
O733        O  0.18798435  0.61152039  0.16680284    -1.11000
O734        O  0.15804151  0.55125624  0.22251887    -0.67600
Ni735      Ni  0.14245497  0.57725997  0.18695616     1.26300
O736        O  0.17539828  0.61306788  0.07802742    -0.67900
O737        O  0.14347022  0.60200751  0.23839399    -0.80200
C738        C  0.07081027  0.53659971  0.17667998     0.83300
O739        O  0.09554757  0.54209759  0.20285968    -0.67300
Ni740      Ni  0.22550869  0.63018781  0.20859510     1.27400
Ni741      Ni  0.18835456  0.58644932  0.11616066     1.26100
H742        H  0.14233588  0.53257512  0.14528247     0.37800
C743        C  0.16007927  0.63930305  0.29957771     0.79000
N744        N  0.12708554  0.62413474  0.31500530    -0.79300
C745        C  0.12036747  0.63487899  0.35328913     0.81400
N746        N  0.14677893  0.66141645  0.37500057    -0.79300
C747        C  0.17946277  0.67664765  0.36011028     0.81500
N748        N  0.18629712  0.66504896  0.32296868    -0.81000
C749        C  0.20191192  0.50755440  0.33144780     0.79000
N750        N  0.20473466  0.53528230  0.30693797    -0.79300
C751        C  0.18575014  0.52981743  0.26900170     0.81400
N752        N  0.16449847  0.99743420  0.25469240    -0.79300
C753        C  0.16252966  0.96991443  0.27758691     0.81500
N754        N  0.18181357  0.97558279  0.31520624    -0.81000
C755        C  0.13820098  0.65054717  0.95474534     0.79000
N756        N  0.13003786  0.62676353  0.98919576    -0.79300
C757        C  0.15290797  0.63409070  0.02341910     0.81400
N758        N  0.18336292  0.66460344  0.02273172    -0.79300
C759        C  0.19145635  0.68797489  0.98862530     0.81500
N760        N  0.16873614  0.68112629  0.95501417    -0.81000
O761        O  0.12798383  0.86710944  0.80614254    -0.82100
O762        O  0.05361892  0.94854386  0.76114462    -0.66800
O763        O  0.12204028  0.92588678  0.80064920    -1.13400
C764        C  0.04545093  0.87805090  0.92512822     1.04800
O765        O  0.06201665  0.97149525  0.82672959    -0.80000
O766        O  0.08691306  0.96064803  0.90450352    -0.67600
Ni767      Ni  0.14013410  0.90533538  0.76409330     1.34900
C768        C  0.11609927  0.96312312  0.90751979     0.83500
O769        O  0.11444874  0.95968399  0.72544656    -0.80600
O770        O  0.15286415  0.94171780  0.71988876    -0.90800
C771        C  0.04829392  0.96655812  0.78846961     0.83100
O772        O  0.10085976  0.87640961  0.72817316    -0.69000
O773        O  0.03215635  0.89568086  0.91073976    -0.88300
C774        C  0.07231985  0.87505256  0.72285024     0.83900
C775        C  0.13852133  0.95843371  0.70549382     1.05500
H776        H  0.04415699  0.88964897  0.82267568     0.37300
O777        O  0.06407966  0.91147289  0.83110824    -1.11000
O778        O  0.12369274  0.94370478  0.88663048    -0.67600
Ni779      Ni  0.09745087  0.90130237  0.85397729     1.26300
O780        O  0.06411342  0.89432548  0.74353705    -0.67900
O781        O  0.07085223  0.87798914  0.90683795    -0.80200
C782        C  0.13779773  0.87082212  0.84660022     0.83300
O783        O  0.13148499  0.88900998  0.87201332    -0.67300
Ni784      Ni  0.04735038  0.93303780  0.86804295     1.27400
Ni785      Ni  0.08846889  0.93619196  0.77797481     1.26100
H786        H  0.14183139  0.94781681  0.80906265     0.37800
C787        C  0.02550204  0.81620751  0.62742094     0.79000
N788        N  0.05271168  0.83783437  0.65458912    -0.79300
C789        C  0.04602837  0.84911481  0.69300443     0.81400
N790        N  0.01328349  0.83791118  0.70398559    -0.79300
C791        C  0.48669326  0.81646631  0.67838727     0.81500
N792        N  0.99287678  0.80596052  0.63991680    -0.81000
C793        C  0.14896502  0.97567527  0.66191238     0.79000
N794        N  0.16964571  0.97044902  0.63550125    -0.79300
C795        C  0.17821294  0.98584217  0.59424694     0.81400
N796        N  0.16941133  0.50513483  0.57862039    -0.79300
C797        C  0.14715922  0.50979333  0.60292209     0.81500
N798        N  0.13607467  0.99532786  0.64664989    -0.81000
C799        C  0.03138499  0.85784165  0.96639102     0.79000
N800        N  0.00757179  0.86052013  0.98993328    -0.79300
C801        C  0.49569749  0.84235300  0.02919214     0.81400
N802        N  0.50868517  0.82278858  0.04550266    -0.79300
C803        C  0.03341648  0.82112855  0.02277198     0.81500
N804        N  0.04409826  0.83829881  0.98297101    -0.81000
C805        C  0.16404043  0.52656252  0.99847384     0.79000
N806        N  0.13747632  0.50233740  0.97305143    -0.79300
C807        C  0.14316685  0.99046444  0.93518339     0.81400
N808        N  0.17624542  0.00521877  0.92165039    -0.79300
C809        C  0.20390360  0.53226870  0.94453674     0.81500
N810        N  0.19680143  0.54128859  0.98364435    -0.81000
C811        C  0.48374252  0.52146179  0.20083132     0.79000
N812        N  0.46431793  0.98656000  0.19685816    -0.79300
C813        C  0.47964164  0.96715431  0.19368487     0.81400
N814        N  0.01472853  0.98390371  0.19020090    -0.79300
C815        C  0.03451871  0.51876877  0.19246438     0.81500
N816        N  0.01867576  0.53745986  0.19584607    -0.81000
C817        C  0.32442117  0.68916915  0.52842103     0.79000
N818        N  0.35976936  0.70577142  0.53165244    -0.79300
C819        C  0.37602479  0.68704630  0.53551199     0.81400
N820        N  0.35680527  0.65186721  0.53310256    -0.79300
C821        C  0.32196729  0.63473086  0.52912536     0.81500
N822        N  0.30594550  0.65361551  0.52573331    -0.81000
C823        C  0.18656365  0.81736257  0.45124358     0.79000
N824        N  0.15127274  0.80061940  0.45263552    -0.79300
C825        C  0.13463084  0.81886783  0.45112995     0.81400
N826        N  0.15363703  0.85419567  0.45045672    -0.79300
C827        C  0.18870140  0.87192306  0.44894801     0.81500
N828        N  0.20513931  0.85324980  0.45082664    -0.81000
C829        C  0.02766454  0.98339117  0.77857236     0.79000
N830        N  0.04433691  0.51883122  0.78134958    -0.79300
C831        C  0.02650650  0.53517797  0.78740257     0.81400
N832        N  0.49138362  0.51556811  0.79127956    -0.79300
C833        C  0.47383215  0.98068822  0.78630153     0.81500
N834        N  0.49228523  0.96439748  0.78201069    -0.81000
C835        C  0.15593665  0.85275272  0.86240471     0.79000
N836        N  0.19114515  0.87073118  0.86257980    -0.79300
C837        C  0.20913116  0.85389585  0.86429229     0.81400
N838        N  0.19093179  0.81808478  0.86356871    -0.79300
C839        C  0.15540847  0.79946506  0.86396946     0.81500
N840        N  0.13853834  0.81735015  0.86178569    -0.81000
C841        C  0.35181910  0.64939499  0.11958411     0.79000
N842        N  0.37013346  0.68483461  0.11961092    -0.79300
C843        C  0.35403328  0.70352002  0.11793856     0.81400
N844        N  0.31853311  0.68583128  0.11796549    -0.79300
C845        C  0.29941168  0.65008340  0.11738425     0.81500
N846        N  0.31654869  0.63233569  0.11998538    -0.81000
C847        C  0.12149718  0.57464644  0.62217878    -0.10400
C848        C  0.15268110  0.60501080  0.61048237     0.05800
C849        C  0.17733207  0.60229782  0.58515728    -0.04200
C850        C  0.17150306  0.56972041  0.57558884    -0.08600
C851        C  0.14275896  0.53955551  0.59297712     0.04900
C852        C  0.11624489  0.54196378  0.61329383    -0.03600
Br853      Br  0.07327078  0.50153056  0.63155333    -0.03300
H854        H  0.10162570  0.57623592  0.63954680     0.08800
H855        H  0.19196135  0.56831896  0.55949489     0.06900
Br856      Br  0.22228419  0.64046958  0.56796771    -0.03800
C857        C  0.07716265  0.89602440  0.23873380    -0.10400
C858        C  0.07137678  0.87113430  0.27267928     0.05800
C859        C  0.10006101  0.87521219  0.29803002    -0.04200
C860        C  0.13128435  0.90671780  0.29527589    -0.08600
C861        C  0.13503308  0.93411826  0.26701594     0.04900
C862        C  0.10894917  0.92706157  0.23487440    -0.03600
Br863      Br  0.11372663  0.95803160  0.18553690    -0.03300
H864        H  0.05640375  0.89234273  0.21649105     0.08800
H865        H  0.15195646  0.91045219  0.31773416     0.06900
Br866      Br  0.09940107  0.84041822  0.33858417    -0.03800
C867        C  0.28457891  0.75608743  0.00666669    -0.10400
C868        C  0.28435188  0.78636395  0.99378378     0.05800
C869        C  0.25344601  0.78397894  0.97852636    -0.04200
C870        C  0.22353801  0.75140776  0.97622277    -0.08600
C871        C  0.22385318  0.72123085  0.98930132     0.04900
C872        C  0.25471555  0.72358940  0.00431730    -0.03600
Br873      Br  0.25861390  0.68361160  0.01899283    -0.03300
H874        H  0.30835107  0.75757370  0.01747279     0.08800
H875        H  0.19970501  0.74971609  0.96522990     0.06900
Br876      Br  0.24943757  0.82379428  0.96306041    -0.03800
C877        C  0.43218563  0.60494617  0.74749584    -0.10400
C878        C  0.43693050  0.63192865  0.71764521     0.05800
C879        C  0.40795641  0.62842307  0.69392360    -0.04200
C880        C  0.37784084  0.59582461  0.69252423    -0.08600
C881        C  0.37566945  0.56682249  0.71543464     0.04900
C882        C  0.40171141  0.57260266  0.74719590    -0.03600
Br883      Br  0.39974032  0.53824126  0.78947249    -0.03300
H884        H  0.45322502  0.60787551  0.76863198     0.08800
H885        H  0.35697958  0.59283135  0.67097264     0.06900
Br886      Br  0.40771946  0.66612204  0.66116167    -0.03800
C887        C  0.41316590  0.82241079  0.72315502    -0.10400
C888        C  0.38779553  0.80238794  0.69196265     0.05800
C889        C  0.39204537  0.77925541  0.66617791    -0.04200
C890        C  0.42401363  0.78184998  0.66582408    -0.08600
C891        C  0.45171574  0.80731515  0.69032838     0.04900
C892        C  0.44537527  0.82597864  0.72197288    -0.03600
Br893      Br  0.47905455  0.86083383  0.76060119    -0.03300
H894        H  0.40961185  0.83877728  0.74528222     0.08800
H895        H  0.42779065  0.76560592  0.64372026     0.06900
Br896      Br  0.35671736  0.74498872  0.62891893    -0.03800
C897        C  0.28084888  0.53009879  0.90663551    -0.10400
C898        C  0.30283330  0.54715746  0.94260744     0.05800
C899        C  0.29620220  0.06909562  0.96615288    -0.04200
C900        C  0.26457805  0.06713799  0.96158353    -0.08600
C901        C  0.24010877  0.54472922  0.93329880     0.04900
C902        C  0.24929279  0.52822506  0.90195486    -0.03600
Br903      Br  0.21963078  0.49926751  0.85535430    -0.03300
H904        H  0.28620035  0.51481769  0.88482252     0.08800
H905        H  0.25909260  0.08237230  0.98332565     0.06900
Br906      Br  0.32803866  0.10109953  0.00869608    -0.03800
C907        C  0.06907259  0.76227466  0.01862936    -0.10400
C908        C  0.04479028  0.73498260  0.04633763     0.05800
C909        C  0.52670497  0.74228942  0.07785797    -0.04200
C910        C  0.52691019  0.77333810  0.07317826    -0.08600
C911        C  0.04508067  0.79725339  0.03819682     0.04900
C912        C  0.06953869  0.79348535  0.01430146    -0.03600
Br913      Br  0.10254316  0.82788238  0.97280936    -0.03300
H914        H  0.08541249  0.75825114  0.99686752     0.08800
H915        H  0.51012533  0.77705797  0.09446717     0.06900
Br916      Br  0.49838747  0.71084943  0.12535258    -0.03800
C917        C  0.32381025  0.93262287  0.36773342    -0.10400
C918        C  0.35445079  0.96256375  0.35377495     0.05800
C919        C  0.38338110  0.96055241  0.34268462    -0.04200
C920        C  0.38048410  0.92809445  0.34334774    -0.08600
C921        C  0.34903476  0.89779527  0.35472152     0.04900
C922        C  0.32060920  0.90027407  0.36785119    -0.03600
Br923      Br  0.27519159  0.86108330  0.38070886    -0.03300
H924        H  0.30129472  0.93402603  0.37579612     0.08800
H925        H  0.40257974  0.92641879  0.33391843     0.06900
Br926      Br  0.42713211  0.00102173  0.32701854    -0.03800
C927        C  0.02383237  0.59512066  0.35714954    -0.10400
C928        C  0.02290819  0.61731228  0.38831827     0.05800
C929        C  0.04991098  0.63249583  0.41940025    -0.04200
C930        C  0.08090314  0.63420843  0.41024105    -0.08600
C931        C  0.08489574  0.62047773  0.37078803     0.04900
C932        C  0.05484460  0.59722639  0.34721643    -0.03600
Br933      Br  0.05406783  0.57030042  0.29863247    -0.03300
H934        H  0.00177985  0.57989995  0.33580652     0.08800
H935        H  0.10264923  0.64896101  0.43217198     0.06900
Br936      Br  0.04684273  0.65284682  0.47278149    -0.03800
O937        O  0.86373060  0.11721943  0.17344824    -0.82100
O938        O  0.95113012  0.04974668  0.21709602    -0.66800
O939        O  0.92490425  0.11630734  0.17921279    -1.13400
C940        C  0.87994715  0.04261603  0.05468532     1.04800
O941        O  0.97193364  0.05624191  0.14949160    -0.80000
O942        O  0.96086558  0.08240069  0.07277645    -0.67600
Ni943      Ni  0.90088095  0.13039394  0.21608224     1.34900
C944        C  0.96429655  0.11226522  0.07060787     0.83500
O945        O  0.95886720  0.10966650  0.25356997    -0.80600
O946        O  0.93621975  0.14426581  0.26092113    -0.90800
C947        C  0.96789335  0.04342872  0.18881680     0.83100
O948        O  0.87369911  0.08877503  0.25159790    -0.69000
O949        O  0.89618724  0.02784465  0.06908119    -0.88300
C950        C  0.87664331  0.06241589  0.25958465     0.83900
C951        C  0.95486762  0.13185923  0.27460261     1.05500
H952        H  0.89118205  0.03906303  0.15801983     0.37300
O953        O  0.91282853  0.05923395  0.14853468    -1.11000
O954        O  0.94544247  0.12012805  0.09276100    -0.67600
Ni955      Ni  0.90238396  0.09292735  0.12587617     1.26300
O956        O  0.89640045  0.05590615  0.23744008    -0.67900
O957        O  0.88049022  0.06809083  0.07309572    -0.80200
C958        C  0.86896991  0.12995506  0.13372458     0.83300
O959        O  0.88967080  0.12701961  0.10853802    -0.67300
Ni960      Ni  0.93340791  0.04219535  0.11030495     1.27400
Ni961      Ni  0.93701173  0.08356934  0.20099352     1.26100
H962        H  0.94619216  0.13737211  0.17088248     0.37800
C963        C  0.98463879  0.17326841  0.38480248     0.79000
N964        N  0.96913594  0.16534750  0.34384657    -0.79300
C965        C  0.97127873  0.14196674  0.31859345     0.81400
N966        N  0.98737379  0.12575109  0.33519935    -0.79300
C967        C  0.50256490  0.13276743  0.37573677     0.81500
N968        N  0.50200908  0.15744664  0.40014479    -0.81000
C969        C  0.82858296  0.02643453  0.36721288     0.79000
N970        N  0.84079161  0.04643698  0.32862721    -0.79300
C971        C  0.85908085  0.03959018  0.29902677     0.81400
N972        N  0.86506914  0.01339526  0.30867402    -0.79300
C973        C  0.84789763  0.49160443  0.34146132     0.81500
N974        N  0.83061442  0.49830153  0.37135821    -0.81000
C975        C  0.52961830  0.16058041  0.97982758     0.79000
N976        N  0.54391648  0.19335216  0.99461772    -0.79300
C977        C  0.53300375  0.19953157  0.03303020     0.81400
N978        N  0.00709224  0.17266796  0.05610600    -0.79300
C979        C  0.99248744  0.13974070  0.04279388     0.81500
N980        N  0.50387104  0.13333536  0.00443176    -0.81000
C981        C  0.86083206  0.03053846  0.01324998     0.79000
N982        N  0.86401438  0.50730977  0.98944042    -0.79300
C983        C  0.84712461  0.49738577  0.95004070     0.81400
N984        N  0.82862819  0.51147035  0.93442165    -0.79300
C985        C  0.82655480  0.53547064  0.95783834     0.81500
N986        N  0.84216729  0.04444370  0.99712085    -0.81000
O987        O  0.70234572  0.28871628  0.50730272    -0.82100
O988        O  0.78733150  0.21301197  0.54159842    -0.66800
O989        O  0.75996375  0.27950587  0.50466592    -1.13400
C990        C  0.70791249  0.19995167  0.38833085     1.04800
O991        O  0.80849359  0.21859571  0.47444181    -0.80000
O992        O  0.79606255  0.24893700  0.40223227    -0.67600
Ni993      Ni  0.74024455  0.29629859  0.54570039     1.34900
C994        C  0.79322575  0.27545890  0.39660557     0.83500
O995        O  0.79861210  0.27296285  0.57454663    -0.80600
O996        O  0.77625816  0.30652440  0.58771041    -0.90800
C997        C  0.80582283  0.20790122  0.51484692     0.83100
O998        O  0.71044548  0.25333076  0.57729758    -0.69000
O999        O  0.73165036  0.19289820  0.39513611    -0.88300
C1000       C  0.71039475  0.22503510  0.58154730     0.83900
C1001       C  0.79664038  0.29543210  0.59658364     1.05500
H1002       H  0.72654594  0.20025788  0.48645707     0.37300
O1003       O  0.74692141  0.22123858  0.47577707    -1.11000
O1004       O  0.77057932  0.27925717  0.41582121    -0.67600
Ni1005     Ni  0.73234482  0.25280377  0.45574199     1.26300
O1006       O  0.73256932  0.21984538  0.56307350    -0.67900
O1007       O  0.70516023  0.22308293  0.40847764    -0.80200
C1008       C  0.70378518  0.29671776  0.46602247     0.83300
O1009       O  0.71762564  0.28614796  0.43883043    -0.67300
Ni1010     Ni  0.76920457  0.20667055  0.43590101     1.27400
Ni1011     Ni  0.77300271  0.24655974  0.52543777     1.26100
H1012       H  0.78056481  0.29985967  0.49297352     0.37800
O1013       O  0.75184377  0.38234437  0.81020740    -0.82100
O1014       O  0.91166315  0.45075798  0.77466879    -0.66800
O1015       O  0.81737175  0.38821042  0.81473856    -1.13400
C1016       C  0.85133796  0.47443386  0.92201016     1.04800
O1017       O  0.93058091  0.45175982  0.84323714    -0.80000
O1018       O  0.88964505  0.42531597  0.91774758    -0.67600
Ni1019     Ni  0.77919150  0.37172154  0.77341733     1.34900
C1020       C  0.85971727  0.39944817  0.92597968     0.83500
O1021       O  0.85917379  0.38773982  0.74853804    -0.80600
O1022       O  0.80196890  0.35820923  0.73368301    -0.90800
C1023       C  0.93681426  0.45945986  0.80188386     0.83100
O1024       O  0.79353621  0.41396822  0.73922564    -0.69000
O1025       O  0.88220325  0.48149895  0.91606606    -0.88300
C1026       C  0.82302358  0.44100079  0.73281833     0.83900
C1027       C  0.83257057  0.36475410  0.72817418     1.05500
H1028       H  0.86635811  0.46818312  0.82505177     0.37300
O1029       O  0.86574214  0.44797934  0.83855182    -1.11000
O1030       O  0.83260267  0.39411729  0.90475799    -0.67600
Ni1031     Ni  0.81957491  0.41775353  0.86025576     1.26300
O1032       O  0.85078135  0.44476110  0.75048243    -0.67900
O1033       O  0.82441440  0.45015359  0.90324908    -0.80200
C1034       C  0.74596395  0.37429591  0.85135629     0.83300
O1035       O  0.77136734  0.38534406  0.87874283    -0.67300
Ni1036     Ni  0.90441715  0.46536216  0.87869883     1.27400
Ni1037     Ni  0.86356053  0.41897687  0.79266300     1.26100
H1038       H  0.81652640  0.36792539  0.82856430     0.37800
C1039       C  0.83654737  0.34287989  0.69811758     0.79000
N1040       N  0.81625450  0.33115783  0.66157859    -0.79300
C1041       C  0.81851102  0.30863026  0.63535764     0.81400
N1042       N  0.84015885  0.29713996  0.64641384    -0.79300
C1043       C  0.85959887  0.30784958  0.68371395     0.81500
N1044       N  0.85797698  0.33117700  0.70919469    -0.81000
C1045       C  0.80926685  0.49594125  0.64634467     0.79000
N1046       N  0.80602775  0.46709819  0.66896143    -0.79300
C1047       C  0.82521870  0.47082854  0.70654744     0.81400
N1048       N  0.84672276  0.50305360  0.72152208    -0.79300
C1049       C  0.84331248  0.03246098  0.70205291     0.81500
N1050       N  0.82451582  0.02789010  0.66414377    -0.81000
C1051       C  0.87206578  0.35438383  0.02697170     0.79000
N1052       N  0.87952853  0.37928552  0.99369093    -0.79300
C1053       C  0.85491862  0.37385659  0.96207881     0.81400
N1054       N  0.82374352  0.34420055  0.96435049    -0.79300
C1055       C  0.81632612  0.31994086  0.99711831     0.81500
N1056       N  0.84059448  0.32490366  0.02791453    -0.81000
O1057       O  0.59240961  0.30744511  0.50497530    -0.82100
O1058       O  0.93734008  0.22395055  0.54935157    -0.66800
O1059       O  0.52823478  0.24701565  0.51286499    -1.13400
C1060       C  0.49323552  0.28193507  0.37829047     1.04800
O1061       O  0.92045659  0.19492210  0.48787935    -0.80000
O1062       O  0.95579026  0.19972096  0.41328763    -0.67600
Ni1063     Ni  0.56804304  0.27075005  0.54941455     1.34900
C1064       C  0.98407554  0.20026014  0.41094714     0.83500
O1065       O  0.98852894  0.21581441  0.58899561    -0.80600
O1066       O  0.54576898  0.23510746  0.59524387    -0.90800
C1067       C  0.91286561  0.20337662  0.52373203     0.83100
O1068       O  0.55691913  0.29909196  0.58305581    -0.69000
O1069       O  0.96237959  0.26195765  0.39202202    -0.88300
C1070       C  0.52863270  0.29806816  0.58846873     0.83900
C1071       C  0.51456273  0.21734901  0.60917659     1.05500
H1072       H  0.98312525  0.27804342  0.48187173     0.37300
O1073       O  0.98221248  0.25642048  0.47696511    -1.11000
O1074       O  0.51198520  0.22354463  0.42875962    -0.67600
Ni1075     Ni  0.52631804  0.26749606  0.45613960     1.26300
O1076       O  0.00157513  0.27960357  0.56468916    -0.67900
O1077       O  0.52036379  0.28627139  0.39934843    -0.80200
C1078       C  0.59848419  0.30137302  0.46622002     0.83300
O1079       O  0.57345624  0.28143979  0.44080083    -0.67300
Ni1080     Ni  0.94261578  0.22902475  0.44074309     1.27400
Ni1081     Ni  0.98425806  0.23626916  0.53376210     1.26100
H1082       H  0.52622985  0.22493974  0.50755109     0.37800
O1083       O  0.88588020  0.24562094  0.17044173    -0.82100
O1084       O  0.95303788  0.40413690  0.20930154    -0.66800
O1085       O  0.88987151  0.31023267  0.17245711    -1.13400
C1086       C  0.97252014  0.34759233  0.05594621     1.04800
O1087       O  0.94978809  0.42335650  0.14151421    -0.80000
O1088       O  0.92532793  0.38597628  0.06551037    -0.67600
Ni1089     Ni  0.87610752  0.27064056  0.21261324     1.34900
C1090       C  0.89778936  0.35687724  0.06049742     0.83500
O1091       O  0.89331432  0.34945025  0.24418125    -0.80600
O1092       O  0.86377214  0.29122137  0.25768731    -0.90800
C1093       C  0.95920936  0.42941906  0.18207963     0.83100
O1094       O  0.91962302  0.28531972  0.24149188    -0.69000
O1095       O  0.98137727  0.37885659  0.06432233    -0.88300
C1096       C  0.94646650  0.31509503  0.24654008     0.83900
C1097       C  0.87178411  0.32200214  0.26665271     1.05500
H1098       H  0.96805684  0.35939993  0.15293772     0.37300
O1099       O  0.94769751  0.35953204  0.14265235    -1.11000
O1100       O  0.89110812  0.32905993  0.08269655    -0.67600
Ni1101     Ni  0.91646126  0.31411407  0.12137029     1.26300
O1102       O  0.94961456  0.34324848  0.22978422    -0.67900
O1103       O  0.94651814  0.32017739  0.07317061    -0.80200
C1104       C  0.87470101  0.24038843  0.13061085     0.83300
O1105       O  0.88313892  0.26647842  0.10380917    -0.67300
Ni1106     Ni  0.96459768  0.39964274  0.10343706     1.27400
Ni1107     Ni  0.92132536  0.35596012  0.19350104     1.26100
H1108       H  0.86906255  0.30958636  0.16248413     0.37800
C1109       C  0.85448563  0.32610126  0.30441688     0.79000
N1110       N  0.85739132  0.35731466  0.30903632    -0.79300
C1111       C  0.84014600  0.36172338  0.34171081     0.81400
N1112       N  0.82026273  0.33510036  0.37028004    -0.79300
C1113       C  0.81709752  0.30375755  0.36641745     0.81500
N1114       N  0.83407645  0.29891285  0.33311852    -0.81000
C1115       C  0.99761763  0.30114653  0.33565108     0.79000
N1116       N  0.52993967  0.32366791  0.32124462    -0.79300
C1117       C  0.53590436  0.34273720  0.28296911     0.81400
N1118       N  0.50859611  0.34000208  0.25925209    -0.79300
C1119       C  0.97565134  0.31723259  0.27277481     0.81500
N1120       N  0.97013304  0.29755584  0.31114812    -0.81000
O1121       O  0.81006672  0.09336400  0.47318260    -0.82100
O1122       O  0.72700307  0.43464750  0.43548385    -0.66800
O1123       O  0.75125181  0.02723538  0.46841322    -1.13400
C1124       C  0.78559884  0.99209958  0.60451297     1.04800
O1125       O  0.70164847  0.41484627  0.50071008    -0.80000
O1126       O  0.70630863  0.45325809  0.56999168    -0.67600
Ni1127     Ni  0.77470903  0.06748758  0.42970169     1.34900
C1128       C  0.70743664  0.48207831  0.57111363     0.83500
O1129       O  0.71832884  0.48638216  0.39583079    -0.80600
O1130       O  0.74079733  0.04501966  0.38394497    -0.90800
C1131       C  0.70797640  0.40893312  0.46219073     0.83100
O1132       O  0.80422129  0.05615986  0.39939069    -0.69000
O1133       O  0.76913250  0.46156493  0.59193874    -0.88300
C1134       C  0.80400671  0.02786651  0.39702135     0.83900
C1135       C  0.72239091  0.01371194  0.37140258     1.05500
H1136       H  0.78311075  0.48099205  0.49825360     0.37300
O1137       O  0.76195997  0.48019813  0.50537830    -1.10400
O1138       O  0.72913208  0.01172219  0.55266916    -0.67600
Ni1139     Ni  0.77201641  0.02512993  0.52453904     1.26300
O1140       O  0.78216093  0.49966649  0.41771784    -0.67900
O1141       O  0.79100480  0.01945801  0.58150604    -0.80200
C1142       C  0.80405951  0.09809612  0.51270399     0.83300
O1143       O  0.78552882  0.07220464  0.53900546    -0.67300
Ni1144     Ni  0.73634620  0.44027174  0.54469161     1.27400
Ni1145     Ni  0.73990186  0.48215773  0.45045649     1.26100
H1146       H  0.72952342  0.02552590  0.47457991     0.37800
O1147       O  0.55550268  0.07758340  0.84244610    -0.82100
O1148       O  0.62699158  0.23631866  0.87691109    -0.66800
O1149       O  0.56008643  0.14240164  0.84261191    -1.13400
C1150       C  0.62940928  0.17579775  0.71033531     1.04800
O1151       O  0.62405245  0.25695234  0.80980760    -0.80000
O1152       O  0.58471416  0.21452600  0.74397942    -0.67600
Ni1153     Ni  0.54390112  0.10277334  0.88257555     1.34900
C1154       C  0.55745932  0.18477435  0.74094604     0.83500
O1155       O  0.56673607  0.18234434  0.91608006    -0.80600
O1156       O  0.53022494  0.12412701  0.92552603    -0.90800
C1157       C  0.63520197  0.26224309  0.84970221     0.83100
O1158       O  0.58536706  0.11745545  0.91616468    -0.69000
O1159       O  0.63850146  0.20682207  0.71998609    -0.88300
C1160       C  0.61310599  0.14677713  0.91937980     0.83900
C1161       C  0.54281951  0.15538801  0.93768459     1.05500
H1162       H  0.63762738  0.19119999  0.81635535     0.37300
O1163       O  0.61658479  0.19072209  0.80812116    -1.11000
O1164       O  0.55463743  0.15663267  0.75635643    -0.67600
Ni1165     Ni  0.58410317  0.14453041  0.78922183     1.26300
O1166       O  0.61984855  0.17393392  0.89599712    -0.67900
O1167       O  0.60917603  0.14903915  0.73500419    -0.80200
C1168       C  0.54514823  0.07168428  0.80217468     0.83300
O1169       O  0.55112491  0.09678739  0.77510351    -0.67300
Ni1170     Ni  0.62983926  0.22940498  0.76696249     1.27400
Ni1171     Ni  0.59259282  0.18813383  0.86196138     1.26100
H1172       H  0.53953705  0.14278430  0.83404156     0.37800
C1173       C  0.64345367  0.17139789  0.66819287     0.79000
N1174       N  0.63199197  0.13897326  0.65284224    -0.79300
C1175       C  0.64531731  0.13498093  0.61467288     0.81400
N1176       N  0.67063785  0.16347640  0.59315555    -0.79300
C1177       C  0.68233716  0.19576384  0.60728685     0.81500
N1178       N  0.66853634  0.19995621  0.64479639    -0.81000
C1179       C  0.50821459  0.19794986  0.65149431     0.79000
N1180       N  0.53476030  0.20139311  0.67710194    -0.79300
C1181       C  0.52835324  0.18265079  0.71600254     0.81400
N1182       N  0.49514171  0.16039864  0.72935785    -0.79300
C1183       C  0.96840599  0.15789852  0.70435955     0.81500
N1184       N  0.97544353  0.17639732  0.66532737    -0.81000
O1185       O  0.57715910  0.04787821  0.13536692    -0.82100
O1186       O  0.73679117  0.12040807  0.10051189    -0.66800
O1187       O  0.64211589  0.05332503  0.13501112    -1.13400
C1188       C  0.66838589  0.12704236  0.25852089     1.04800
O1189       O  0.75531113  0.12322278  0.17019200    -0.80000
O1190       O  0.71343014  0.08842878  0.24010558    -0.67600
Ni1191     Ni  0.60357002  0.03775998  0.09530943     1.34900
C1192       C  0.68591244  0.05873477  0.24190012     0.83500
O1193       O  0.68384743  0.05893669  0.06420364    -0.80600
O1194       O  0.62603208  0.02573549  0.05225395    -0.90800
C1195       C  0.76167302  0.13090004  0.12893837     0.83100
O1196       O  0.61822045  0.08040907  0.06218761    -0.69000
O1197       O  0.70009034  0.14072447  0.24808167    -0.88300
C1198       C  0.64793989  0.10729762  0.05624959     0.83900
C1199       C  0.65729987  0.03684450  0.04161974     1.05500
H1200       H  0.68660260  0.13145975  0.15414233     0.37300
O1201       O  0.68790805  0.11170204  0.16558815    -1.11000
O1202       O  0.65798036  0.05170143  0.22178767    -0.67600
Ni1203     Ni  0.64239621  0.07758364  0.18607585     1.26300
O1204       O  0.67508153  0.11251472  0.07685742    -0.67900
O1205       O  0.64361270  0.10258066  0.23722889    -0.80200
C1206       C  0.57087503  0.03711832  0.17588647     0.83300
O1207       O  0.59550730  0.04255480  0.20221646    -0.67300
Ni1208     Ni  0.72554693  0.13060603  0.20718707     1.27400
Ni1209     Ni  0.68805309  0.08613394  0.11541322     1.26100
H1210       H  0.64205745  0.03255491  0.14510036     0.37800
C1211       C  0.66054508  0.13969006  0.29846142     0.79000
N1212       N  0.62777030  0.12376119  0.31480861    -0.79300
C1213       C  0.62131622  0.13396944  0.35368892     0.81400
N1214       N  0.64771645  0.16080165  0.37499831    -0.79300
C1215       C  0.68017621  0.17686302  0.35910281     0.81500
N1216       N  0.68682984  0.16573587  0.32141423    -0.81000
C1217       C  0.70320657  0.00836021  0.32921294     0.79000
N1218       N  0.70556705  0.03596421  0.30499290    -0.79300
C1219       C  0.68604601  0.03032163  0.26755982     0.81400
N1220       N  0.66436956  0.49701402  0.25587489    -0.79300
C1221       C  0.66184409  0.46937173  0.27904945     0.81500
N1222       N  0.68055227  0.47480943  0.31720836    -0.81000
C1223       C  0.63819455  0.15094409  0.95397368     0.79000
N1224       N  0.63008065  0.12661337  0.98776476    -0.79300
C1225       C  0.65269273  0.13364039  0.02223197     0.81400
N1226       N  0.68284964  0.16441137  0.02245530    -0.79300
C1227       C  0.69091243  0.18835243  0.98908155     0.81500
N1228       N  0.66843448  0.18180489  0.95519486    -0.81000
O1229       O  0.62699506  0.36674533  0.80664027    -0.82100
O1230       O  0.55378354  0.44872126  0.75960744    -0.66800
O1231       O  0.62229804  0.42630650  0.79964589    -1.13400
C1232       C  0.54661351  0.38045689  0.92487862     1.04800
O1233       O  0.56344668  0.47297931  0.82444030    -0.80000
O1234       O  0.58854499  0.46313943  0.90271815    -0.67600
Ni1235     Ni  0.63957058  0.40462538  0.76387188     1.34900
C1236       C  0.61757626  0.46531836  0.90605518     0.83500
O1237       O  0.61401065  0.45856419  0.72313102    -0.80600
O1238       O  0.65254184  0.44056573  0.71920006    -0.90800
C1239       C  0.54900127  0.46730924  0.78659764     0.83100
O1240       O  0.60012681  0.37581402  0.72810368    -0.69000
O1241       O  0.53363810  0.39841995  0.91053695    -0.88300
C1242       C  0.57158950  0.37448354  0.72286252     0.83900
C1243       C  0.63802638  0.45683459  0.70372944     1.05500
H1244       H  0.54472016  0.39090764  0.82282946     0.37300
O1245       O  0.56483845  0.41282119  0.83055709    -1.11000
O1246       O  0.62493981  0.44553680  0.88553628    -0.67600
Ni1247     Ni  0.59819728  0.40269568  0.85355497     1.26300
O1248       O  0.56349527  0.39382580  0.74357159    -0.67900
O1249       O  0.57185453  0.38008892  0.90664676    -0.80200
C1250       C  0.63750740  0.37106651  0.84679782     0.83300
O1251       O  0.63209729  0.39016582  0.87173854    -0.67300
Ni1252     Ni  0.54873412  0.43521804  0.86689113     1.27400
Ni1253     Ni  0.58862335  0.43639047  0.77659909     1.26100
H1254       H  0.64225974  0.44832777  0.80742522     0.37800
C1255       C  0.52506096  0.31554396  0.62741232     0.79000
N1256       N  0.55215915  0.33735308  0.65458466    -0.79300
C1257       C  0.54529773  0.34853993  0.69296323     0.81400
N1258       N  0.51244991  0.33701916  0.70393864    -0.79300
C1259       C  0.98594215  0.31507099  0.67851551     0.81500
N1260       N  0.49236784  0.30479418  0.64004324    -0.81000
C1261       C  0.64871893  0.47320288  0.65981263     0.79000
N1262       N  0.66998452  0.46765106  0.63498144    -0.79300
C1263       C  0.68018783  0.48343246  0.59419108     0.81400
N1264       N  0.66595357  0.00668493  0.57952611    -0.79300
C1265       C  0.64377582  0.01053774  0.60546996     0.81500
N1266       N  0.63727663  0.49394093  0.64363347    -0.81000
C1267       C  0.53222464  0.35985214  0.96575655     0.79000
N1268       N  0.50814226  0.36215542  0.98918963    -0.79300
C1269       C  0.99570162  0.34318639  0.02782181     0.81400
N1270       N  0.00838882  0.32325490  0.04361792    -0.79300
C1271       C  0.53336387  0.32194810  0.02105981     0.81500
N1272       N  0.54461707  0.33987612  0.98182869    -0.81000
C1273       C  0.66293455  0.02455525  0.99949625     0.79000
N1274       N  0.63621662  0.00029806  0.97431844    -0.79300
C1275       C  0.64459363  0.49268483  0.93384894     0.81400
N1276       N  0.67772282  0.50757656  0.92048222    -0.79300
C1277       C  0.70254490  0.02991199  0.94552902     0.81500
N1278       N  0.69563056  0.03910693  0.98457350    -0.81000
C1279       C  0.98388812  0.02209283  0.19906632     0.79000
N1280       N  0.96426922  0.48588005  0.19866442    -0.79300
C1281       C  0.97968693  0.46653558  0.19528380     0.81400
N1282       N  0.51475826  0.48340258  0.19150960    -0.79300
C1283       C  0.53455953  0.01926878  0.19132625     0.81500
N1284       N  0.51881056  0.03803690  0.19447829    -0.81000
C1285       C  0.82349078  0.18826311  0.52841063     0.79000
N1286       N  0.85893259  0.20520777  0.53092919    -0.79300
C1287       C  0.87551061  0.18675605  0.53410403     0.81400
N1288       N  0.85650844  0.15160995  0.53129373    -0.79300
C1289       C  0.82163305  0.13427063  0.52795987     0.81500
N1290       N  0.80525898  0.15277416  0.52575289    -0.81000
C1291       C  0.68689240  0.31693762  0.45138128     0.79000
N1292       N  0.65164407  0.30033660  0.45311521    -0.79300
C1293       C  0.63511971  0.31867057  0.45205936     0.81400
N1294       N  0.65428813  0.35404085  0.45145911    -0.79300
C1295       C  0.68938634  0.37162483  0.44939873     0.81500
N1296       N  0.70562423  0.35278403  0.45089904    -0.81000
C1297       C  0.52791172  0.48366841  0.77705882     0.79000
N1298       N  0.54430735  0.01854904  0.78301926    -0.79300
C1299       C  0.52656161  0.03516835  0.78763723     0.81400
N1300       N  0.99142276  0.01598979  0.78990920    -0.79300
C1301       C  0.97394384  0.48021700  0.78729612     0.81500
N1302       N  0.99261755  0.46433567  0.78157117    -0.81000
C1303       C  0.65551643  0.35281041  0.86266384     0.79000
N1304       N  0.69073526  0.37076439  0.86362894    -0.79300
C1305       C  0.70871417  0.35389975  0.86531840     0.81400
N1306       N  0.69050012  0.31810235  0.86389450    -0.79300
C1307       C  0.65496850  0.29947699  0.86349662     0.81500
N1308       N  0.63814224  0.31741999  0.86129141    -0.81000
C1309       C  0.85145446  0.14904356  0.11908041     0.79000
N1310       N  0.86992999  0.18446378  0.11880814    -0.79300
C1311       C  0.85404115  0.20333029  0.11674184     0.81400
N1312       N  0.81851810  0.18580623  0.11655557    -0.79300
C1313       C  0.79923137  0.15002610  0.11604288     0.81500
N1314       N  0.81621006  0.13214069  0.11912316    -0.81000
C1315       C  0.61087183  0.07035671  0.62330834    -0.10400
C1316       C  0.63616891  0.10003625  0.59977532     0.05800
C1317       C  0.65503543  0.09545062  0.56609567    -0.04200
C1318       C  0.65401367  0.06392833  0.56435027    -0.08600
C1319       C  0.63350231  0.03634278  0.59408642     0.04900
C1320       C  0.60869837  0.03835797  0.61974172    -0.03600
Br1321     Br  0.57216933  0.99905629  0.65211473    -0.03300
H1322       H  0.59395907  0.07230175  0.64646698     0.08800
H1323       H  0.67154741  0.06213109  0.54213271     0.06900
Br1324     Br  0.68442944  0.13038265  0.52246201    -0.03800
C1325       C  0.57707783  0.39533969  0.23851480    -0.10400
C1326       C  0.57176406  0.36987099  0.27130682     0.05800
C1327       C  0.60059788  0.37396525  0.29625682    -0.04200
C1328       C  0.63147710  0.40587155  0.29440538    -0.08600
C1329       C  0.63462910  0.43369348  0.26756492     0.04900
C1330       C  0.60835777  0.42692343  0.23575610    -0.03600
Br1331     Br  0.61153156  0.45910021  0.18892378    -0.03300
H1332       H  0.55614502  0.39179737  0.21670452     0.08800
H1333       H  0.65229837  0.40952764  0.31652651     0.06900
Br1334     Br  0.60035598  0.33860600  0.33524760    -0.03800
C1335       C  0.78385621  0.25648952  0.00845470    -0.10400
C1336       C  0.78354785  0.28686326  0.99649112     0.05800
C1337       C  0.75259289  0.28458698  0.98169912    -0.04200
C1338       C  0.72270980  0.25201735  0.97887378    -0.08600
C1339       C  0.72315760  0.22172273  0.99075408     0.04900
C1340       C  0.75406887  0.22399346  0.00540144    -0.03600
Br1341     Br  0.75821277  0.18394120  0.01829928    -0.03300
H1342       H  0.80767771  0.25790591  0.01883658     0.08800
H1343       H  0.69884592  0.25038331  0.96817674     0.06900
Br1344     Br  0.74863970  0.32455447  0.96713081    -0.03800
C1345       C  0.92495821  0.10608485  0.74904385    -0.10400
C1346       C  0.93197831  0.13153437  0.71531830     0.05800
C1347       C  0.90410421  0.12796007  0.68852852    -0.04200
C1348       C  0.87303780  0.09622026  0.68889105    -0.08600
C1349       C  0.86875433  0.06812204  0.71612592     0.04900
C1350       C  0.89317570  0.07477780  0.75048910    -0.03600
Br1351     Br  0.88560874  0.04276814  0.79967603    -0.03300
H1352       H  0.94485444  0.10943244  0.77265031     0.08800
H1353       H  0.85329734  0.09283308  0.66497906     0.06900
Br1354     Br  0.90613059  0.16366891  0.64846388    -0.03800
C1355       C  0.91124273  0.31821223  0.72491339    -0.10400
C1356       C  0.88619711  0.29894037  0.69292883     0.05800
C1357       C  0.89111946  0.27695139  0.66569690    -0.04200
C1358       C  0.92338883  0.28026148  0.66473122    -0.08600
C1359       C  0.95065999  0.30495038  0.69057412     0.04900
C1360       C  0.94354975  0.32190663  0.72383942    -0.03600
Br1361     Br  0.97617263  0.35373860  0.76615997    -0.03300
H1362       H  0.90713125  0.33347040  0.74829698     0.08800
H1363       H  0.92764023  0.26503810  0.64142706     0.06900
Br1364     Br  0.85623583  0.24304702  0.62765553    -0.03800
C1365       C  0.77976067  0.02867182  0.90645485    -0.10400
C1366       C  0.80217156  0.04649031  0.94175283     0.05800
C1367       C  0.79691637  0.56970997  0.96726816    -0.04200
C1368       C  0.76578963  0.56867279  0.96173457    -0.08600
C1369       C  0.73869611  0.04255309  0.93389464     0.04900
C1370       C  0.74783669  0.02604988  0.90250923    -0.03600
Br1371     Br  0.71775260  0.99612823  0.85689878    -0.03300
H1372       H  0.78512583  0.01334768  0.88473795     0.08800
H1373       H  0.76031849  0.58388263  0.98354073     0.06900
Br1374     Br  0.82777964  0.60014191  0.01181872    -0.03800
C1375       C  0.56861897  0.26269517  0.01672385    -0.10400
C1376       C  0.54433202  0.23547823  0.04456845     0.05800
C1377       C  0.02632566  0.24291218  0.07602857    -0.04200
C1378       C  0.02656964  0.27395401  0.07119639    -0.08600
C1379       C  0.54479587  0.29783461  0.03621283     0.04900
C1380       C  0.56923257  0.29399872  0.01239627    -0.03600
Br1381     Br  0.60260896  0.32859933  0.97143497    -0.03300
H1382       H  0.58494044  0.25859798  0.99502481     0.08800
H1383       H  0.00985792  0.27775727  0.09251622     0.06900
Br1384     Br  0.99812637  0.21169003  0.12375977    -0.03800
C1385       C  0.81585435  0.42895827  0.35521789    -0.10400
C1386       C  0.84750581  0.45926571  0.34560277     0.05800
C1387       C  0.87702090  0.45765232  0.33702238    -0.04200
C1388       C  0.87415253  0.42534451  0.33676575    -0.08600
C1389       C  0.84222109  0.39485420  0.34504052     0.04900
C1390       C  0.81281268  0.39666412  0.35466260    -0.03600
Br1391     Br  0.76716467  0.35659110  0.36283877    -0.03300
H1392       H  0.79298575  0.43030481  0.36112007     0.08800
H1393       H  0.89688633  0.42400309  0.32994833     0.06900
Br1394     Br  0.92172616  0.49854920  0.32694876    -0.03800
C1395       C  0.52538560  0.09536924  0.35642721    -0.10400
C1396       C  0.52477640  0.11812723  0.38698581     0.05800
C1397       C  0.55154215  0.13301716  0.41854774    -0.04200
C1398       C  0.58208518  0.13352491  0.41055968    -0.08600
C1399       C  0.58597523  0.11922256  0.37165920     0.04900
C1400       C  0.55595280  0.09606780  0.34805332    -0.03600
Br1401     Br  0.55487878  0.06710753  0.30189501    -0.03300
H1402       H  0.50346088  0.08034505  0.33482545     0.08800
H1403       H  0.60379628  0.14818656  0.43258703     0.06900
Br1404     Br  0.54931896  0.15511285  0.47071421    -0.03800
O1405       O  0.86469631  0.61808043  0.17386122    -0.82100
O1406       O  0.95092832  0.54949562  0.21837819    -0.66800
O1407       O  0.92561474  0.61671739  0.17918884    -1.13400
C1408       C  0.88023323  0.54247416  0.05530030     1.04800
O1409       O  0.97181070  0.55545795  0.15091298    -0.80000
O1410       O  0.96155766  0.58212190  0.07418017    -0.67600
Ni1411     Ni  0.90235889  0.63196868  0.21564939     1.34900
C1412       C  0.96469741  0.61185617  0.07134266     0.83500
O1413       O  0.95887820  0.60994717  0.25421578    -0.80600
O1414       O  0.93812576  0.64637208  0.25974411    -0.90800
C1415       C  0.96762822  0.54279526  0.19033285     0.83100
O1416       O  0.87530595  0.59117642  0.25244118    -0.69000
O1417       O  0.89670441  0.52790352  0.06953708    -0.88300
C1418       C  0.87693314  0.56401058  0.25967123     0.83900
C1419       C  0.95563237  0.63295858  0.27442225     1.05500
H1420       H  0.89144124  0.53915072  0.15873567     0.37300
O1421       O  0.91310811  0.55927177  0.14920292    -1.11000
O1422       O  0.94550389  0.61970635  0.09272828    -0.67600
Ni1423     Ni  0.90265564  0.59292970  0.12626750     1.26300
O1424       O  0.89615293  0.55678902  0.23742983    -0.67900
O1425       O  0.88046601  0.56772226  0.07390017    -0.80200
C1426       C  0.86950003  0.63037931  0.13399754     0.83300
O1427       O  0.88986446  0.62702970  0.10860748    -0.67300
Ni1428     Ni  0.93357305  0.54186906  0.11131915     1.27400
Ni1429     Ni  0.93723215  0.58374412  0.20161453     1.26100
H1430       H  0.94704242  0.63748366  0.17050822     0.37800
C1431       C  0.98403679  0.67360788  0.38515269     0.79000
N1432       N  0.96931158  0.66626434  0.34372081    -0.79300
C1433       C  0.97136334  0.64271408  0.31873490     0.81400
N1434       N  0.98648203  0.62576757  0.33602477    -0.79300
C1435       C  0.50100660  0.63227363  0.37692617     0.81500
N1436       N  0.50063261  0.65713431  0.40116831    -0.81000
C1437       C  0.82707796  0.52625397  0.36582054     0.79000
N1438       N  0.84085888  0.54785885  0.32871920    -0.79300
C1439       C  0.85796143  0.54048663  0.29783746     0.81400
N1440       N  0.86114772  0.51232747  0.30469436    -0.79300
C1441       C  0.85343912  0.99424299  0.34707762     0.81500
N1442       N  0.83495790  0.00056099  0.37564343    -0.81000
C1443       C  0.52977713  0.66047774  0.98044967     0.79000
N1444       N  0.54416746  0.69315679  0.99561333    -0.79300
C1445       C  0.53347377  0.69912180  0.03438478     0.81400
N1446       N  0.00769190  0.67214997  0.05743551    -0.79300
C1447       C  0.99298647  0.63932275  0.04374189     0.81500
N1448       N  0.50415796  0.63310373  0.00505274    -0.81000
C1449       C  0.86115916  0.53049149  0.01381015     0.79000
N1450       N  0.86371304  0.00726359  0.98912424    -0.79300
C1451       C  0.84684824  0.99715680  0.94976490     0.81400
N1452       N  0.82833792  0.01115267  0.93391087    -0.79300
C1453       C  0.82619123  0.03521872  0.95707167     0.81500
N1454       N  0.84254958  0.54449450  0.99787013    -0.81000
O1455       O  0.70293704  0.78988958  0.50728790    -0.82100
O1456       O  0.79108055  0.71712634  0.54117791    -0.66800
O1457       O  0.76108752  0.78143354  0.50317771    -1.13400
C1458       C  0.70709535  0.69967829  0.38959049     1.04800
O1459       O  0.80872914  0.71808895  0.47317321    -0.80000
O1460       O  0.79595539  0.74906535  0.40245373    -0.67600
Ni1461     Ni  0.74168716  0.79840566  0.54455429     1.34900
C1462       C  0.79321293  0.77564476  0.39665724     0.83500
O1463       O  0.80332070  0.77852862  0.57031328    -0.80600
O1464       O  0.77859359  0.80965866  0.58533165    -0.90800
C1465       C  0.80735374  0.70932217  0.51416240     0.83100
O1466       O  0.71293680  0.75584388  0.57772515    -0.69000
O1467       O  0.73111819  0.69304717  0.39587152    -0.88300
C1468       C  0.71495737  0.72877650  0.58374072     0.83900
C1469       C  0.80045651  0.80025064  0.59282633     1.05500
H1470       H  0.72792946  0.70148946  0.48909926     0.37300
O1471       O  0.74774829  0.72224986  0.47664667    -1.11000
O1472       O  0.77010472  0.77924813  0.41494929    -0.67600
Ni1473     Ni  0.73240703  0.75331302  0.45596556     1.26300
O1474       O  0.73755827  0.72442804  0.56495144    -0.67900
O1475       O  0.70426078  0.72259714  0.41005096    -0.80200
C1476       C  0.70363992  0.79722344  0.46588000     0.83300
O1477       O  0.71700996  0.78614259  0.43863277    -0.67300
Ni1478     Ni  0.76895892  0.70674025  0.43599449     1.27400
Ni1479     Ni  0.77580723  0.74982668  0.52397563     1.26100
H1480       H  0.78107878  0.80184647  0.49040092     0.37800
O1481       O  0.75191495  0.88235094  0.80883962    -0.82100
O1482       O  0.91196504  0.95389862  0.77323968    -0.66800
O1483       O  0.81806100  0.88970582  0.81256352    -1.13400
C1484       C  0.85128587  0.97431321  0.92183404     1.04800
O1485       O  0.93009750  0.95201988  0.84151441    -0.80000
O1486       O  0.88989773  0.92577197  0.91658328    -0.67600
Ni1487     Ni  0.77978841  0.87282588  0.77145312     1.34900
C1488       C  0.86013428  0.89952176  0.92426768     0.83500
O1489       O  0.86038695  0.89173763  0.74516083    -0.80600
O1490       O  0.80314465  0.86045733  0.73106931    -0.90800
C1491       C  0.93670672  0.96063537  0.80038955     0.83100
O1492       O  0.79327125  0.91509361  0.73796221    -0.69000
O1493       O  0.88228883  0.98182446  0.91554011    -0.88300
C1494       C  0.82222601  0.94293443  0.73228405     0.83900
C1495       C  0.83410494  0.86834075  0.72489652     1.05500
H1496       H  0.86641625  0.96970703  0.82516924     0.37300
O1497       O  0.86582457  0.94924601  0.83778627    -1.11000
O1498       O  0.83305739  0.89405335  0.90278038    -0.67600
Ni1499     Ni  0.81981749  0.91822512  0.85920291     1.26300
O1500       O  0.85037977  0.94761922  0.74993814    -0.67900
O1501       O  0.82438009  0.94980183  0.90327190    -0.80200
C1502       C  0.74625925  0.87421559  0.85001222     0.83300
O1503       O  0.77171821  0.88522063  0.87729548    -0.67300
Ni1504     Ni  0.90445919  0.96586843  0.87772138     1.27400
Ni1505     Ni  0.86401296  0.92153555  0.79062164     1.26100
H1506       H  0.81780081  0.86952230  0.82570801     0.37800
C1507       C  0.83905583  0.84734432  0.69461452     0.79000
N1508       N  0.81968366  0.83623362  0.65730988    -0.79300
C1509       C  0.82247550  0.81397950  0.63120441     0.81400
N1510       N  0.84355860  0.80199810  0.64320900    -0.79300
C1511       C  0.86191673  0.81199005  0.68138733     0.81500
N1512       N  0.85988094  0.83513158  0.70671864    -0.81000
C1513       C  0.80461600  0.99585852  0.64721044     0.79000
N1514       N  0.80330927  0.96769814  0.66915470    -0.79300
C1515       C  0.82288447  0.97227127  0.70664385     0.81400
N1516       N  0.84282766  0.00463859  0.72221131    -0.79300
C1517       C  0.84941823  0.53164477  0.70063688     0.81500
N1518       N  0.83088794  0.52793792  0.66264571    -0.81000
C1519       C  0.87245710  0.85420267  0.02528047     0.79000
N1520       N  0.87994350  0.87923368  0.99209834    -0.79300
C1521       C  0.85550959  0.87370511  0.96008523     0.81400
N1522       N  0.82451922  0.84382477  0.96188485    -0.79300
C1523       C  0.81707856  0.81947250  0.99453239     0.81500
N1524       N  0.84113571  0.82455512  0.02572023    -0.81000
O1525       O  0.59198871  0.80832530  0.50365442    -0.82100
O1526       O  0.93783151  0.72373130  0.55054147    -0.66800
O1527       O  0.52855937  0.74761545  0.51267239    -1.13400
C1528       C  0.49247413  0.78257848  0.37890889     1.04800
O1529       O  0.92060221  0.69516930  0.48866457    -0.80000
O1530       O  0.95537186  0.70035734  0.41336570    -0.67600
Ni1531     Ni  0.56862957  0.77191429  0.54854104     1.34900
C1532       C  0.98356961  0.70070892  0.41110240     0.83500
O1533       O  0.98974720  0.71617290  0.58937412    -0.80600
O1534       O  0.54725759  0.73643489  0.59457964    -0.90800
C1535       C  0.91325408  0.70338527  0.52490494     0.83100
O1536       O  0.55733986  0.80000292  0.58252459    -0.69000
O1537       O  0.96168184  0.76269032  0.39295285    -0.88300
C1538       C  0.52891149  0.79856546  0.58852933     0.83900
C1539       C  0.51624989  0.71827136  0.60905172     1.05500
H1540       H  0.98302029  0.77829776  0.48281187     0.37300
O1541       O  0.98207760  0.75669615  0.47763884    -1.11000
O1542       O  0.51150481  0.72388106  0.42892299    -0.67600
Ni1543     Ni  0.52602670  0.76788986  0.45609221     1.26300
O1544       O  0.00168335  0.77968415  0.56528964    -0.67900
O1545       O  0.51963441  0.78660192  0.39952241    -0.80200
C1546       C  0.59804861  0.80177437  0.46520310     0.83300
O1547       O  0.57296542  0.78174051  0.43997518    -0.67300
Ni1548     Ni  0.94229593  0.72947558  0.44159420     1.27400
Ni1549     Ni  0.98468612  0.73647893  0.53425962     1.26100
H1550       H  0.52678381  0.72564966  0.50731366     0.37800
O1551       O  0.88511519  0.74589692  0.17180771    -0.82100
O1552       O  0.95264575  0.90493182  0.20858456    -0.66800
O1553       O  0.88933119  0.81081984  0.17270621    -1.13400
C1554       C  0.97254985  0.84710017  0.05700666     1.04800
O1555       O  0.94954778  0.92362663  0.14039283    -0.80000
O1556       O  0.92548983  0.88588244  0.06449806    -0.67600
Ni1557     Ni  0.87560980  0.77152395  0.21340474     1.34900
C1558       C  0.89790898  0.85680741  0.05949503     0.83500
O1559       O  0.89304599  0.85074500  0.24418512    -0.80600
O1560       O  0.86360883  0.79260427  0.25816414    -0.90800
C1561       C  0.95901770  0.93000259  0.18090800     0.83100
O1562       O  0.91920755  0.78636140  0.24215414    -0.69000
O1563       O  0.98145250  0.87847224  0.06484470    -0.88300
C1564       C  0.94600333  0.81618997  0.24712049     0.83900
C1565       C  0.87184779  0.82344992  0.26715467     1.05500
H1566       H  0.96752403  0.85966238  0.15332117     0.37300
O1567       O  0.94723093  0.85980892  0.14276159    -1.11000
O1568       O  0.89096493  0.82911210  0.08230163    -0.67600
Ni1569     Ni  0.91606809  0.81429545  0.12191975     1.26300
O1570       O  0.94911377  0.84424793  0.23009510    -0.67900
O1571       O  0.94636126  0.81987750  0.07424918    -0.80200
C1572       C  0.87440684  0.74058315  0.13177468     0.83300
O1573       O  0.88286143  0.76656408  0.10478054    -0.67300
Ni1574     Ni  0.96448321  0.89963637  0.10306880     1.27400
Ni1575     Ni  0.92084823  0.85671136  0.19338259     1.26100
H1576       H  0.86854719  0.81011977  0.16248619     0.37800
C1577       C  0.85565905  0.82763698  0.30617439     0.79000
N1578       N  0.86129828  0.85960297  0.31424951    -0.79300
C1579       C  0.84559952  0.86408886  0.34892660     0.81400
N1580       N  0.82438373  0.83662836  0.37568726    -0.79300
C1581       C  0.81830969  0.80453975  0.36814103     0.81500
N1582       N  0.83397459  0.79979084  0.33319957    -0.81000
C1583       C  0.99689503  0.80214346  0.33649748     0.79000
N1584       N  0.52924943  0.82488960  0.32239875    -0.79300
C1585       C  0.53538086  0.84423285  0.28433964     0.81400
N1586       N  0.50814916  0.84151350  0.26044286    -0.79300
C1587       C  0.97514920  0.81850320  0.27363616     0.81500
N1588       N  0.96949639  0.79857790  0.31183127    -0.81000
O1589       O  0.80984226  0.59407638  0.47378462    -0.82100
O1590       O  0.72682187  0.93482790  0.43485106    -0.66800
O1591       O  0.75199661  0.52705599  0.47026156    -1.13400
C1592       C  0.78998826  0.49253375  0.60391455     1.04800
O1593       O  0.69903876  0.91571284  0.49865392    -0.80000
O1594       O  0.70272605  0.95447916  0.56815568    -0.67600
Ni1595     Ni  0.77425687  0.56727205  0.43106276     1.34900
C1596       C  0.70447190  0.98365700  0.56929457     0.83500
O1597       O  0.71972774  0.98712877  0.39319293    -0.80600
O1598       O  0.74010896  0.54427323  0.38569431    -0.90800
C1599       C  0.70680593  0.90934231  0.46124862     0.83100
O1600       O  0.80413987  0.55659089  0.40035925    -0.69000
O1601       O  0.76454541  0.96111663  0.59262719    -0.88300
C1602       C  0.80339847  0.52810570  0.39675996     0.83900
C1603       C  0.72117352  0.51290141  0.37368676     1.05500
H1604       H  0.78088447  0.98043923  0.49971590     0.37300
O1605       O  0.75970884  0.98002985  0.50540086    -1.10400
O1606       O  0.73180228  0.51053925  0.55484684    -0.67600
Ni1607     Ni  0.77431908  0.52522822  0.52526729     1.26300
O1608       O  0.78286685  0.99963102  0.41849112    -0.67900
O1609       O  0.79478035  0.51985758  0.58132372    -0.80200
C1610       C  0.80448561  0.59843946  0.51378736     0.83300
O1611       O  0.78740742  0.57225510  0.54047091    -0.67300
Ni1612     Ni  0.73254423  0.94038084  0.54427781     1.27400
Ni1613     Ni  0.73958274  0.98240472  0.44906034     1.26100
H1614       H  0.73041411  0.52526457  0.47760111     0.37800
O1615       O  0.55494573  0.57706318  0.84294506    -0.82100
O1616       O  0.62719324  0.73642576  0.87844723    -0.66800
O1617       O  0.56101166  0.64258829  0.84277532    -1.13400
C1618       C  0.63550453  0.67772619  0.71464275     1.04800
O1619       O  0.62434742  0.75639574  0.81107155    -0.80000
O1620       O  0.58941635  0.71568557  0.74213126    -0.67600
Ni1621     Ni  0.54402608  0.60281217  0.88289826     1.34900
C1622       C  0.56189732  0.68617243  0.73928150     0.83500
O1623       O  0.56643475  0.68248939  0.91619453    -0.80600
O1624       O  0.53063831  0.62427260  0.92602102    -0.90800
C1625       C  0.63551976  0.76214941  0.85087228     0.83100
O1626       O  0.58548559  0.61700269  0.91644621    -0.69000
O1627       O  0.64457204  0.70865785  0.72458508    -0.88300
C1628       C  0.61299846  0.64644380  0.92046634     0.83900
C1629       C  0.54287278  0.65547795  0.93804438     1.05500
H1630       H  0.63913696  0.69139609  0.81962415     0.37300
O1631       O  0.61837051  0.69109781  0.81030486    -1.11000
O1632       O  0.55824680  0.65800579  0.75609243    -0.67600
Ni1633     Ni  0.58652640  0.64516572  0.79043495     1.26300
O1634       O  0.61958836  0.67391984  0.89804423    -0.67900
O1635       O  0.61357359  0.65053077  0.73759581    -0.80200
C1636       C  0.54551696  0.57175884  0.80229895     0.83300
O1637       O  0.55359112  0.59742046  0.77505142    -0.67300
Ni1638     Ni  0.63315641  0.73029913  0.76956615     1.27400
Ni1639     Ni  0.59311291  0.68830771  0.86290710     1.26100
H1640       H  0.54064920  0.64298077  0.83318776     0.37800
C1641       C  0.65159401  0.67410193  0.67401074     0.79000
N1642       N  0.64412529  0.64202270  0.66163511    -0.79300
C1643       C  0.65904838  0.63887368  0.62457453     0.81400
N1644       N  0.68096041  0.66753354  0.60032338    -0.79300
C1645       C  0.68906256  0.69947079  0.61173478     0.81500
N1646       N  0.67426576  0.70305510  0.64873143    -0.81000
C1647       C  0.51092198  0.69914965  0.65145558     0.79000
N1648       N  0.53820350  0.70278254  0.67579135    -0.79300
C1649       C  0.53273148  0.68422419  0.71471370     0.81400
N1650       N  0.49996082  0.66219252  0.72926801    -0.79300
C1651       C  0.97259644  0.65933902  0.70568209     0.81500
N1652       N  0.97844921  0.67752763  0.66652119    -0.81000
O1653       O  0.57686842  0.54711480  0.13603331    -0.82100
O1654       O  0.73708243  0.62086296  0.10173499    -0.66800
O1655       O  0.64235425  0.55337615  0.13547170    -1.13400
C1656       C  0.66813678  0.62648118  0.25984607     1.04800
O1657       O  0.75533459  0.62288023  0.17144981    -0.80000
O1658       O  0.71334087  0.58797110  0.24148306    -0.67600
Ni1659     Ni  0.60393662  0.53808613  0.09551046     1.34900
C1660       C  0.68583163  0.55827212  0.24306034     0.83500
O1661       O  0.68453457  0.55989583  0.06431516    -0.80600
O1662       O  0.62684219  0.52711181  0.05161728    -0.90800
C1663       C  0.76184825  0.63087088  0.13024503     0.83100
O1664       O  0.61844043  0.58117478  0.06372876    -0.69000
O1665       O  0.69990181  0.64017946  0.24957519    -0.88300
C1666       C  0.64819639  0.60797623  0.05769374     0.83900
C1667       C  0.65815702  0.53829164  0.04108365     1.05500
H1668       H  0.68667387  0.63134037  0.15564634     0.37300
O1669       O  0.68798420  0.61152117  0.16680354    -1.11000
O1670       O  0.65804132  0.55125749  0.22252018    -0.67600
Ni1671     Ni  0.64245478  0.57726100  0.18695719     1.26300
O1672       O  0.67539840  0.61306762  0.07802783    -0.67900
O1673       O  0.64347006  0.60200882  0.23839472    -0.80200
C1674       C  0.57081031  0.53660081  0.17668102     0.83300
O1675       O  0.59554747  0.54209873  0.20286095    -0.67300
Ni1676     Ni  0.72550849  0.63018912  0.20859593     1.27400
Ni1677     Ni  0.68835421  0.58644922  0.11616209     1.26100
H1678       H  0.64233525  0.53257558  0.14528439     0.37800
C1679       C  0.66007920  0.63930421  0.29957860     0.79000
N1680       N  0.62708547  0.62413616  0.31500599    -0.79300
C1681       C  0.62036745  0.63488012  0.35329010     0.81400
N1682       N  0.64677903  0.66141701  0.37500215    -0.79300
C1683       C  0.67946290  0.67664791  0.36011203     0.81500
N1684       N  0.68629715  0.66504956  0.32297007    -0.81000
C1685       C  0.70191238  0.50755600  0.33144827     0.79000
N1686       N  0.70473450  0.53528383  0.30693906    -0.79300
C1687       C  0.68575028  0.52981894  0.26900255     0.81400
N1688       N  0.66449820  0.99743544  0.25469332    -0.79300
C1689       C  0.66252872  0.96991552  0.27758814     0.81500
N1690       N  0.68181263  0.97558369  0.31520746    -0.81000
C1691       C  0.63820180  0.65054695  0.95474485     0.79000
N1692       N  0.63003850  0.62676334  0.98919538    -0.79300
C1693       C  0.65290863  0.63409035  0.02341865     0.81400
N1694       N  0.68336380  0.66460286  0.02273107    -0.79300
C1695       C  0.69145743  0.68797427  0.98862455     0.81500
N1696       N  0.66873717  0.68112585  0.95501352    -0.81000
O1697       O  0.62798184  0.86710832  0.80614192    -0.82100
O1698       O  0.55361845  0.94854398  0.76114401    -0.66800
O1699       O  0.62203927  0.92588624  0.80064854    -1.13400
C1700       C  0.54544951  0.87805114  0.92512722     1.04800
O1701       O  0.56201718  0.97149597  0.82672864    -0.80000
O1702       O  0.58691257  0.96064813  0.90450318    -0.67600
Ni1703     Ni  0.64013241  0.90533426  0.76409252     1.34900
C1704       C  0.61609868  0.96312302  0.90751955     0.83500
O1705       O  0.61444787  0.95968343  0.72544580    -0.80600
O1706       O  0.65286285  0.94171672  0.71988791    -0.90800
C1707       C  0.54829406  0.96655865  0.78846891     0.83100
O1708       O  0.60085767  0.87640892  0.72817269    -0.69000
O1709       O  0.53215524  0.89568137  0.91073868    -0.88300
C1710       C  0.57231786  0.87505216  0.72284997     0.83900
C1711       C  0.63852039  0.95843300  0.70549311     1.05500
H1712       H  0.54415612  0.88964922  0.82267533     0.37300
O1713       O  0.56407894  0.91147309  0.83110773    -1.11000
O1714       O  0.62369206  0.94370465  0.88663002    -0.67600
Ni1715     Ni  0.59744984  0.90130216  0.85397677     1.26300
O1716       O  0.56411176  0.89432524  0.74353685    -0.67900
O1717       O  0.57085091  0.87798925  0.90683734    -0.80200
C1718       C  0.63779633  0.87082126  0.84659937     0.83300
O1719       O  0.63148372  0.88900918  0.87201266    -0.67300
Ni1720     Ni  0.54735004  0.93303847  0.86804208     1.27400
Ni1721     Ni  0.58846808  0.93619178  0.77797419     1.26100
H1722       H  0.64183056  0.94781618  0.80906187     0.37800
C1723       C  0.52550043  0.81620728  0.62742081     0.79000
N1724       N  0.55270988  0.83783468  0.65458870    -0.79300
C1725       C  0.54602628  0.84911450  0.69300427     0.81400
N1726       N  0.51328120  0.83790976  0.70398608    -0.79300
C1727       C  0.98669553  0.81646885  0.67838619     0.81500
N1728       N  0.49287492  0.80595872  0.63991750    -0.81000
C1729       C  0.64896447  0.97567500  0.66191197     0.79000
N1730       N  0.66964544  0.97044917  0.63550091    -0.79300
C1731       C  0.67821309  0.98584291  0.59424695     0.81400
N1732       N  0.66940803  0.50513533  0.57862267    -0.79300
C1733       C  0.64715517  0.50979238  0.60292521     0.81500
N1734       N  0.63607424  0.99532773  0.64664976    -0.81000
C1735       C  0.53138313  0.85784164  0.96638968     0.79000
N1736       N  0.50757008  0.86052022  0.98993213    -0.79300
C1737       C  0.99569929  0.84235314  0.02919341     0.81400
N1738       N  0.00868715  0.82278900  0.04550429    -0.79300
C1739       C  0.53341439  0.82112813  0.02277007     0.81500
N1740       N  0.54409616  0.83829856  0.98296930    -0.81000
C1741       C  0.66403900  0.52656042  0.99847669     0.79000
N1742       N  0.63747473  0.50233515  0.97305446    -0.79300
C1743       C  0.64316626  0.99046428  0.93518338     0.81400
N1744       N  0.67624485  0.00521859  0.92165045    -0.79300
C1745       C  0.70390195  0.53226628  0.94453954     0.81500
N1746       N  0.69679993  0.54128635  0.98364707    -0.81000
C1747       C  0.98374297  0.52146195  0.20083176     0.79000
N1748       N  0.96431766  0.98655973  0.19685827    -0.79300
C1749       C  0.97964126  0.96715392  0.19368462     0.81400
N1750       N  0.51472894  0.98390421  0.19020131    -0.79300
C1751       C  0.53451867  0.51876932  0.19246489     0.81500
N1752       N  0.51867536  0.53746002  0.19584644    -0.81000
C1753       C  0.82442178  0.68917005  0.52842171     0.79000
N1754       N  0.85976995  0.70577201  0.53165282    -0.79300
C1755       C  0.87602503  0.68704658  0.53551219     0.81400
N1756       N  0.85680523  0.65186752  0.53310292    -0.79300
C1757       C  0.82196724  0.63473149  0.52912613     0.81500
N1758       N  0.80594576  0.65361642  0.52573429    -0.81000
C1759       C  0.68656376  0.81736309  0.45124420     0.79000
N1760       N  0.65127279  0.80062009  0.45263561    -0.79300
C1761       C  0.63463105  0.81886875  0.45112950     0.81400
N1762       N  0.65363749  0.85419659  0.45045636    -0.79300
C1763       C  0.68870187  0.87192380  0.44894830     0.81500
N1764       N  0.70513957  0.85325032  0.45082737    -0.81000
C1765       C  0.52766453  0.98339147  0.77857202     0.79000
N1766       N  0.54433695  0.51883011  0.78135017    -0.79300
C1767       C  0.52650680  0.53517718  0.78740275     0.81400
N1768       N  0.99138332  0.51556867  0.79127886    -0.79300
C1769       C  0.97383241  0.98068856  0.78630203     0.81500
N1770       N  0.99228523  0.96439749  0.78201151    -0.81000
C1771       C  0.65593581  0.85275213  0.86240331     0.79000
N1772       N  0.69114437  0.87073106  0.86257913    -0.79300
C1773       C  0.70913087  0.85389618  0.86429193     0.81400
N1774       N  0.69093197  0.81808515  0.86356790    -0.79300
C1775       C  0.65540866  0.79946494  0.86396773     0.81500
N1776       N  0.63853802  0.81734956  0.86178367    -0.81000
C1777       C  0.85181866  0.64939417  0.11958542     0.79000
N1778       N  0.87013335  0.68483378  0.11961182    -0.79300
C1779       C  0.85403357  0.70351954  0.11793934     0.81400
N1780       N  0.81853339  0.68583115  0.11796652    -0.79300
C1781       C  0.79941159  0.65008324  0.11738551     0.81500
N1782       N  0.81654826  0.63233518  0.11998684    -0.81000
C1783       C  0.62149036  0.57464328  0.62218316    -0.10400
C1784       C  0.65266829  0.60500737  0.61046570     0.05800
C1785       C  0.67730943  0.60229110  0.58512173    -0.04200
C1786       C  0.67148098  0.56971186  0.57556383    -0.08600
C1787       C  0.64274701  0.53954964  0.59297609     0.04900
C1788       C  0.61623788  0.54195953  0.61330491    -0.03600
Br1789     Br  0.57327075  0.50152811  0.63158992    -0.03300
H1790       H  0.60162438  0.57623398  0.63956369     0.08800
H1791       H  0.69193359  0.56830884  0.55945623     0.06900
Br1792     Br  0.72224917  0.64046169  0.56788532    -0.03800
C1793       C  0.57716139  0.89602568  0.23873456    -0.10400
C1794       C  0.57137577  0.87113507  0.27267917     0.05800
C1795       C  0.60006003  0.87521298  0.29802982    -0.04200
C1796       C  0.63128318  0.90671880  0.29527634    -0.08600
C1797       C  0.63503174  0.93411953  0.26701710     0.04900
C1798       C  0.60894768  0.92706315  0.23487583    -0.03600
Br1799     Br  0.61372435  0.95803395  0.18553967    -0.03300
H1800       H  0.55640242  0.89234415  0.21649204     0.08800
H1801       H  0.65195533  0.91045304  0.31773442     0.06900
Br1802     Br  0.59940036  0.84041866  0.33858304    -0.03800
C1803       C  0.78457987  0.75608689  0.00666698    -0.10400
C1804       C  0.78435292  0.78636335  0.99378345     0.05800
C1805       C  0.75344714  0.78397827  0.97852547    -0.04200
C1806       C  0.72353922  0.75140706  0.97622165    -0.08600
C1807       C  0.72385431  0.72123020  0.98930071     0.04900
C1808       C  0.75471654  0.72358885  0.00431758    -0.03600
Br1809     Br  0.75861481  0.68361120  0.01899464    -0.03300
H1810       H  0.80835194  0.75757321  0.01747367     0.08800
H1811       H  0.69970630  0.74971536  0.96522828     0.06900
Br1812     Br  0.74943855  0.82379348  0.96305918    -0.03800
C1813       C  0.93218225  0.60494614  0.74749791    -0.10400
C1814       C  0.93692748  0.63192847  0.71764678     0.05800
C1815       C  0.90795352  0.62842302  0.69392494    -0.04200
C1816       C  0.87783777  0.59582465  0.69252570    -0.08600
C1817       C  0.87566611  0.56682254  0.71543653     0.04900
C1818       C  0.90170782  0.57260279  0.74719820    -0.03600
Br1819     Br  0.89973592  0.53824166  0.78947586    -0.03300
H1820       H  0.95322148  0.60787543  0.76863434     0.08800
H1821       H  0.85697667  0.59283142  0.67097381     0.06900
Br1822     Br  0.90771703  0.66612211  0.66116270    -0.03800
C1823       C  0.91317011  0.82241770  0.72315133    -0.10400
C1824       C  0.88779857  0.80239258  0.69196147     0.05800
C1825       C  0.89204773  0.77925882  0.66617842    -0.04200
C1826       C  0.92401584  0.78185314  0.66582456    -0.08600
C1827       C  0.95171862  0.80731962  0.69032656     0.04900
C1828       C  0.94537946  0.82598577  0.72196840    -0.03600
Br1829     Br  0.97906043  0.86084534  0.76059072    -0.03300
H1830       H  0.90961692  0.83878577  0.74527672     0.08800
H1831       H  0.92779218  0.76560763  0.64372251     0.06900
Br1832     Br  0.85671890  0.74499062  0.62892176    -0.03800
C1833       C  0.78084755  0.53009759  0.90663675    -0.10400
C1834       C  0.80283241  0.54715683  0.94260811     0.05800
C1835       C  0.79620088  0.06909421  0.96615523    -0.04200
C1836       C  0.76457721  0.06713743  0.96158457    -0.08600
C1837       C  0.74010709  0.54472709  0.93330119     0.04900
C1838       C  0.74929112  0.52822319  0.90195689    -0.03600
Br1839     Br  0.71962883  0.49926532  0.85535673    -0.03300
H1840       H  0.78619905  0.51481661  0.88482357     0.08800
H1841       H  0.75909177  0.08237194  0.98332632     0.06900
Br1842     Br  0.82803654  0.10109725  0.00869983    -0.03800
C1843       C  0.56907129  0.76227501  0.01862628    -0.10400
C1844       C  0.54478952  0.73498292  0.04633494     0.05800
C1845       C  0.02670570  0.74228936  0.07786028    -0.04200
C1846       C  0.02691156  0.77333838  0.07318053    -0.08600
C1847       C  0.54507886  0.79725314  0.03819445     0.04900
C1848       C  0.56953695  0.79348547  0.01429864    -0.03600
Br1849     Br  0.60254102  0.82788266  0.97280630    -0.03300
H1850       H  0.58541117  0.75825172  0.99686411     0.08800
H1851       H  0.01012673  0.77705849  0.09446916     0.06900
Br1852     Br  0.99838713  0.71084925  0.12535412    -0.03800
C1853       C  0.82380656  0.93262163  0.36772747    -0.10400
C1854       C  0.85444753  0.96256264  0.35377047     0.05800
C1855       C  0.88337780  0.96055128  0.34268000    -0.04200
C1856       C  0.88048059  0.92809329  0.34334235    -0.08600
C1857       C  0.84903112  0.89779411  0.35471552     0.04900
C1858       C  0.82060535  0.90027277  0.36784448    -0.03600
Br1859     Br  0.77518762  0.86108174  0.38070075    -0.03300
H1860       H  0.80129105  0.93402489  0.37578997     0.08800
H1861       H  0.90257634  0.92641767  0.33391344     0.06900
Br1862     Br  0.92712919  0.00102058  0.32701513    -0.03800
C1863       C  0.52383220  0.59512170  0.35715012    -0.10400
C1864       C  0.52290777  0.61731310  0.38831892     0.05800
C1865       C  0.54991066  0.63249704  0.41940073    -0.04200
C1866       C  0.58090292  0.63420981  0.41024156    -0.08600
C1867       C  0.58489565  0.62047918  0.37078855     0.04900
C1868       C  0.55484460  0.59722798  0.34721665    -0.03600
Br1869     Br  0.55406806  0.57030321  0.29863133    -0.03300
H1870       H  0.50177972  0.57990084  0.33580711     0.08800
H1871       H  0.60264897  0.64896247  0.43217252     0.06900
Br1872     Br  0.54684247  0.65284836  0.47278172    -0.03800
loop_ 
_geom_bond_atom_site_label_1 
_geom_bond_atom_site_label_2 
_geom_bond_distance 
_geom_bond_site_symmetry_2 
_ccdc_geom_bond_type 
O1           Ni7   1.935       .  S
O1           C22   1.273       .  A
O2          Ni25   1.965       .  S
O2           C11   1.283       .  A
O3           Ni7   1.904       .  S
O3          Ni25   1.900       .  S
O3          Ni19   1.914       .  S
O3           H26   0.966       .  S
C4           O21   1.279       .  A
C4           O13   1.275       .  A
C4           C45   1.453       .  S
O5          Ni24   1.910       .  S
O5           C11   1.266       .  A
O6          Ni24   1.909       .  S
O6            C8   1.265       .  A
Ni7          O10   1.922       .  S
Ni7          O12   1.912       .  S
C8           O18   1.284       .  A
C8           C43   1.476       .  S
O9          Ni25   1.931       .  S
O9           C15   1.291       .  A
O10          C15   1.279       .  A
C11         C343   1.487       .  S
O12          C14   1.268       .  A
O13         Ni24   1.905       .  S
C14          O20   1.279       .  A
C14          C35   1.477       .  S
C15          C29   1.469       .  S
H16          O17   0.966       .  S
O17         Ni25   1.924       .  S
O17         Ni19   1.898       .  S
O17         Ni24   1.903       .  S
O18         Ni19   1.949       .  S
Ni19         O23   1.940       .  S
Ni19         O21   1.916       .  S
O20         Ni25   1.932       .  S
C22          O23   1.278       .  A
C22         C373   1.484       .  S
C27         C128   1.481       .  S
C27          N28   1.367       .  A
C27         N968   1.364       .  A
N28          C29   1.363       .  A
C29          N30   1.343       .  A
N30         C967   1.350       .  A
C31         C460   1.482       .  S
C31          N32   1.364       .  A
C31         N966   1.350   1_455  A
N32         C963   1.364   1_455  A
C33         C198   1.470       .  S
C33          N34   1.372       .  A
C33         N506   1.345       .  A
N34          C35   1.373       .  A
C35          N36   1.353       .  A
N36         C505   1.350   1_545  A
C37         C450   1.441       .  S
C37          N38   1.343       .  A
C37         N504   1.345       .  A
N38         C501   1.346       .  A
C39         C225   1.488       .  S
C39          N40   1.355       .  A
C39          N44   1.374   1_556  A
N40          C41   1.358   1_556  A
C41         C440   1.472       .  S
C41         N978   1.346       .  A
N42          C43   1.344       .  A
N42         C977   1.346       .  A
C43         N980   1.372       .  A
N44         C979   1.372   1_455  A
C45          N50   1.354   1_554  A
C45         N514   1.356   1_554  A
N46          C47   1.354       .  A
N46         C513   1.356   1_556  A
C47          C80   1.445       .  S
C47          N48   1.348       .  A
N48          C49   1.354       .  A
C49         C898   1.473       .  S
C49         N518   1.353       .  A
N50         C517   1.353       .  A
O51         Ni57   1.928       .  S
O51          C72   1.269       .  A
O52         Ni75   1.961       .  S
O52          C61   1.281       .  A
O53         Ni57   1.924       .  S
O53         Ni75   1.929       .  S
O53         Ni69   1.916       .  S
O53          H76   0.966       .  S
C54          O71   1.283       .  A
C54          O63   1.275       .  A
C54         C279   1.449       .  S
O55         Ni74   1.937       .  S
O55          C61   1.270       .  A
O56         Ni74   1.899       .  S
O56          C58   1.264       .  A
Ni57         O60   1.906       .  S
Ni57         O62   1.911       .  S
C58          O68   1.274       .  A
C58         C177   1.460       .  S
O59         Ni75   1.889       .  S
O59          C65   1.270       .  A
O60          C65   1.271       .  A
C61         C349   1.503       .  S
O62          C64   1.268       .  A
O63         Ni74   1.909       .  S
C64          O70   1.282       .  A
C64         C241   1.473       .  S
C65         C105   1.443       .  S
H66          O67   0.964       .  S
O67         Ni75   1.893       .  S
O67         Ni69   1.916       .  S
O67         Ni74   1.917       .  S
O68         Ni69   1.920       .  S
Ni69         O73   1.970       .  S
Ni69         O71   1.921       .  S
O70         Ni75   1.942       .  S
C72          O73   1.282       .  A
C72         C355   1.504       .  S
O77         Ni83   1.921       .  S
O77          C98   1.267       .  A
O78        Ni101   1.959       .  S
O78          C87   1.280       .  A
O79         Ni83   1.930       .  S
O79        Ni101   1.927       .  S
O79         Ni95   1.909       .  S
O79         H102   0.966       .  S
C80          O97   1.279       .  A
C80          O89   1.276       .  A
O81        Ni100   1.939       .  S
O81          C87   1.273       .  A
O82        Ni100   1.914       .  S
O82          C84   1.268       .  A
Ni83         O86   1.900       .  S
Ni83         O88   1.913       .  S
C84          O94   1.280       .  A
C84         C117   1.479       .  S
O85        Ni101   1.901       .  S
O85          C91   1.273       .  A
O86          C91   1.270       .  A
C87         C365   1.503       .  S
O88          C90   1.267       .  A
O89        Ni100   1.913       .  S
C90          O96   1.281       .  A
C90         C111   1.483       .  S
C91         C103   1.440       .  S
H92          O93   0.964       .  S
O93        Ni101   1.901       .  S
O93         Ni95   1.919       .  S
O93        Ni100   1.921       .  S
O94         Ni95   1.934       .  S
Ni95         O99   1.971       .  S
Ni95         O97   1.909       .  S
O96        Ni101   1.950       .  S
C98          O99   1.282       .  A
C98         C369   1.502       .  S
C103        N104   1.351       .  A
C103        N108   1.348       .  A
N104        C105   1.352       .  A
C105        N106   1.350       .  A
N106        C107   1.349       .  A
C107        C420   1.466       .  S
C107        N108   1.354       .  A
C109        C656   1.494       .  S
C109        N110   1.375       .  A
C109        N582   1.358       .  A
N110        C111   1.369       .  A
C111        N112   1.349       .  A
N112        C581   1.351       .  A
C113        C413   1.481       .  S
C113        N114   1.362       .  A
C113        N580   1.353       .  A
N114        C577   1.356   1_545  A
C115        C154   1.482       .  S
C115        N116   1.375   1_554  A
C115        N120   1.352       .  A
N116        C117   1.374       .  A
C117        N118   1.349       .  A
N118        C119   1.346       .  A
C119        C400   1.459       .  S
C119        N120   1.351   1_556  A
O121       Ni127   1.927       .  S
O121        C142   1.274       .  A
O122       Ni145   1.958       .  S
O122        C131   1.278       .  A
O123       Ni127   1.898       .  S
O123       Ni139   1.922       .  S
O123      Ni1081   1.902   1_455  S
O123        H146   0.966       .  S
C124        O141   1.292   1_655  A
C124       O1069   1.274       .  A
C124       C1115   1.471       .  S
O125       Ni144   1.909       .  S
O125        C131   1.267       .  A
O126       Ni144   1.919       .  S
O126        C128   1.269       .  A
Ni127       O130   1.918       .  S
Ni127       O132   1.918       .  S
C128       O1074   1.274       .  A
O129       Ni145   1.915       .  S
O129       C1071   1.281       .  A
O130        C135   1.279       .  A
C131        C351   1.486       .  S
O132        C134   1.269       .  A
O133       Ni144   1.906       .  S
O133       C1060   1.274       .  A
C134       O1076   1.286       .  A
C134        C319   1.491       .  S
C135       O1065   1.281   1_455  A
C135        C243   1.456       .  S
H136        O137   0.966       .  S
O137       Ni145   1.919       .  S
O137       Ni144   1.910       .  S
O137      Ni1075   1.902       .  S
O138       Ni139   1.943       .  S
O138       C1064   1.274   1_455  A
Ni139       O143   1.945       .  S
Ni139       O141   1.944       .  S
Ni139      O1073   1.902   1_455  S
O140       Ni145   1.949       .  S
O140       C1070   1.286       .  A
C142        O143   1.279       .  A
C142        C357   1.484       .  S
Ni145      O1059   1.902       .  S
O147       Ni153   1.927       .  S
O147        C168   1.270       .  A
O148       Ni171   1.951       .  S
O148        C157   1.279       .  A
O149       Ni153   1.925       .  S
O149       Ni171   1.919       .  S
O149       Ni165   1.917       .  S
O149        H172   0.966       .  S
C150        O167   1.282       .  A
C150        O159   1.279       .  A
C150        C333   1.455       .  S
O151       Ni170   1.939       .  S
O151        C157   1.274       .  A
O152       Ni170   1.914       .  S
O152        C154   1.267       .  A
Ni153       O156   1.914       .  S
Ni153       O158   1.919       .  S
C154        O164   1.281       .  A
O155       Ni171   1.916       .  S
O155        C161   1.281       .  A
O156        C161   1.273       .  A
C157        C345   1.494       .  S
O158        C160   1.270       .  A
O159       Ni170   1.920       .  S
C160        O166   1.277       .  A
C160        C183   1.482       .  S
C161        C173   1.462       .  S
H162        O163   0.966       .  S
O163       Ni171   1.909       .  S
O163       Ni165   1.910       .  S
O163       Ni170   1.910       .  S
O164       Ni165   1.943       .  S
Ni165       O169   1.961       .  S
Ni165       O167   1.921       .  S
O166       Ni171   1.944       .  S
C168        O169   1.279       .  A
C168        C375   1.499       .  S
C173        N174   1.349       .  A
C173        N178   1.366       .  A
N174        C175   1.349       .  A
C175        C453   1.447       .  S
C175        N176   1.345       .  A
N176        C177   1.347       .  A
C177        N178   1.364       .  A
C179       C1060   1.471       .  S
C179        N184   1.368       .  A
C179       N1116   1.345       .  A
N180        C181   1.348       .  A
N180       C1115   1.345   1_455  A
C181        C390   1.478       .  S
C181        N182   1.362       .  A
N182       C1119   1.359   1_455  A
C183        N184   1.367       .  A
C183       N1118   1.359       .  A
O185       Ni191   1.929       .  S
O185        C206   1.274       .  A
O186       Ni209   1.967       .  S
O186        C195   1.281       .  A
O187       Ni191   1.907       .  S
O187       Ni203   1.932       .  S
O187       Ni677   1.910   1_545  S
O187        H210   0.966       .  S
C188        O205   1.292   1_565  A
C188        O665   1.275       .  A
C188        C577   1.493       .  S
O189       Ni208   1.920       .  S
O189        C195   1.269       .  A
O190       Ni208   1.913       .  S
O190        C192   1.269       .  A
Ni191       O194   1.917       .  S
Ni191       O196   1.913       .  S
C192        O670   1.265       .  A
C192        C327   1.456       .  S
O193       Ni209   1.941       .  S
O193        C667   1.285       .  A
O194        C199   1.276       .  A
C195        C359   1.497       .  S
O196        C198   1.269       .  A
O197       Ni208   1.917       .  S
O197        C656   1.273       .  A
C198        O672   1.281   1_545  A
C199        O661   1.286   1_545  A
C199        C281   1.474       .  S
H200        O201   0.966       .  S
O201       Ni209   1.929       .  S
O201       Ni208   1.919       .  S
O201       Ni671   1.915       .  S
O202       Ni203   1.913       .  S
O202        C660   1.265   1_545  A
Ni203       O207   1.937       .  S
Ni203       O205   1.961       .  S
Ni203       O669   1.911   1_545  S
O204       Ni209   1.924       .  S
O204        C666   1.281       .  A
C206        O207   1.274       .  A
C206        C353   1.479       .  S
Ni209       O655   1.912       .  S
O211       Ni217   1.938       .  S
O211        C232   1.274       .  A
O212       Ni235   1.967       .  S
O212        C221   1.282       .  A
O213       Ni217   1.911       .  S
O213       Ni235   1.911       .  S
O213       Ni229   1.928       .  S
O213        H236   0.966       .  S
C214        O231   1.284       .  A
C214        O223   1.275       .  A
C214        C237   1.493       .  S
O215       Ni234   1.932       .  S
O215        C221   1.272       .  A
O216       Ni234   1.910       .  S
O216        C218   1.270       .  A
Ni217       O220   1.927       .  S
Ni217       O222   1.912       .  S
C218        O228   1.269       .  A
C218        C245   1.459       .  S
O219       Ni235   1.952       .  S
O219        C225   1.291       .  A
O220        C225   1.278       .  A
C221        C371   1.503       .  S
O222        C224   1.270       .  A
O223       Ni234   1.930       .  S
C224        O230   1.274       .  A
C224        C287   1.463       .  S
H226        O227   0.966       .  S
O227       Ni235   1.933       .  S
O227       Ni229   1.921       .  S
O227       Ni234   1.917       .  S
O228       Ni229   1.918       .  S
Ni229       O233   1.933       .  S
Ni229       O231   1.948       .  S
O230       Ni235   1.913       .  S
C232        O233   1.273       .  A
C232        C363   1.484       .  S
C237        N238   1.365       .  A
C237        N242   1.371       .  A
N238        C239   1.367       .  A
C239        C380   1.486       .  S
C239        N240   1.347       .  A
N240        C241   1.344       .  A
C241        N242   1.365       .  A
C243        N244   1.353       .  A
C243       N1184   1.348   1_455  A
N244        C245   1.355       .  A
C245        N246   1.362   1_455  A
N246       C1183   1.364       .  A
C247        C410   1.483       .  S
C247        N248   1.351       .  A
C247       N1182   1.364       .  A
N248       C1179   1.348       .  A
O249       Ni255   1.936       .  S
O249        C270   1.272       .  A
O250       Ni273   1.976       .  S
O250        C259   1.287       .  A
O251       Ni255   1.913       .  S
O251       Ni273   1.910       .  S
O251       Ni267   1.913       .  S
O251        H274   0.966       .  S
C252        O269   1.274       .  A
C252        O261   1.274       .  A
C252        C275   1.473       .  S
O253       Ni272   1.926       .  S
O253        C259   1.270       .  A
O254       Ni272   1.911       .  S
O254        C256   1.269       .  A
Ni255       O258   1.917       .  S
Ni255       O260   1.910       .  S
C256        O266   1.275       .  A
C256        C283   1.463       .  S
O257       Ni273   1.948       .  S
O257        C263   1.293       .  A
O258        C263   1.275       .  A
C259        C377   1.505       .  S
O260        C262   1.269       .  A
O261       Ni272   1.920       .  S
C262        O268   1.274       .  A
C262        C289   1.460       .  S
C263        C337   1.479   1_554  S
H264        O265   0.966       .  S
O265       Ni273   1.934       .  S
O265       Ni267   1.918       .  S
O265       Ni272   1.917       .  S
O266       Ni267   1.922       .  S
Ni267       O271   1.933       .  S
Ni267       O269   1.923       .  S
O268       Ni273   1.911       .  S
C270        O271   1.272       .  A
C270        C347   1.482       .  S
C275        N276   1.362       .  A
C275        N280   1.359       .  A
N276        C277   1.362       .  A
C277        C463   1.482       .  S
C277        N278   1.352       .  A
N278        C279   1.345       .  A
C279        N280   1.356       .  A
C281        N282   1.365       .  A
C281        N754   1.356   1_545  A
N282        C283   1.361       .  A
C283        N752   1.349   1_545  A
N284        C285   1.348       .  A
N284        C751   1.348       .  A
C285        C393   1.479       .  S
C285        N286   1.361       .  A
N286        C749   1.357       .  A
C287        N288   1.365       .  A
C287        N292   1.354       .  A
N288        C289   1.364   1_556  A
C289        N290   1.349       .  A
N290        C291   1.346   1_554  A
C291        C403   1.455       .  S
C291        N292   1.350       .  A
O293       Ni299   1.926       .  S
O293        C314   1.271       .  A
O294       Ni317   1.970       .  S
O294        C303   1.284       .  A
O295       Ni299   1.902       .  S
O295       Ni317   1.906       .  S
O295       Ni311   1.917       .  S
O295        H318   0.966       .  S
C296        O313   1.284       .  A
C296        O305   1.274       .  A
C296        C331   1.450       .  S
O297       Ni316   1.905       .  S
O297        C303   1.265       .  A
O298       Ni316   1.913       .  S
O298        C300   1.266       .  A
Ni299       O302   1.902       .  S
Ni299       O304   1.911       .  S
C300        O310   1.280       .  A
C300        C339   1.478       .  S
O301       Ni317   1.912       .  S
O301        C307   1.282       .  A
O302        C307   1.276       .  A
C303        C361   1.489       .  S
O304        C306   1.266       .  A
O305       Ni316   1.898       .  S
C306        O312   1.287       .  A
C306        C321   1.478       .  S
C307        C325   1.447       .  S
H308        O309   0.966       .  S
O309       Ni317   1.913       .  S
O309       Ni311   1.893       .  S
O309       Ni316   1.900       .  S
O310       Ni311   1.944       .  S
Ni311       O315   1.945       .  S
Ni311       O313   1.921       .  S
O312       Ni317   1.946       .  S
C314        O315   1.278       .  A
C314        C367   1.482       .  S
C319        N320   1.381       .  A
C319        N324   1.354   1_455  A
N320        C321   1.379       .  A
C321        N322   1.340       .  A
N322       C1259   1.338   1_455  A
C323        C423   1.464       .  S
C323       N1258   1.338       .  A
C323       N1260   1.353       .  A
N324       C1259   1.353       .  A
C325        N326   1.355       .  A
C325        N330   1.347       .  A
N326        C327   1.353       .  A
C327        N796   1.357       .  A
N328        C329   1.366       .  A
N328        C795   1.365   1_545  A
C329        C383   1.478       .  S
C329        N798   1.349   1_545  A
N330        C797   1.350       .  A
C331        N332   1.359       .  A
C331        N336   1.348       .  A
N332       C1269   1.356   1_456  A
C333        N334   1.354       .  A
C333       N1268   1.356   1_554  A
N334       C1271   1.357       .  A
C335        C443   1.472       .  S
C335        N336   1.348   1_554  A
C335       N1270   1.357       .  A
C337        N338   1.373       .  A
C337        N342   1.349       .  A
N338        C807   1.370   1_545  A
C339        N340   1.349       .  A
C339        N806   1.371       .  A
N340        C809   1.350       .  A
C341        C433   1.471       .  S
C341        N342   1.354       .  A
C341        N808   1.350       .  A
C343        N812   1.370   1_545  A
C343       N1284   1.363       .  A
N344        C345   1.372       .  A
N344        C811   1.372       .  A
C345       N1282   1.364       .  A
N346       C1281   1.364   1_455  A
N346        C815   1.362       .  A
C347        N348   1.360       .  A
C347        N814   1.362   1_545  A
N348       C1279   1.363   1_455  A
C349        N350   1.375       .  A
C349        N354   1.368       .  A
N350        C351   1.372       .  A
C351        N352   1.356       .  A
N352        C353   1.353       .  A
C353        N354   1.366       .  A
C355        N356   1.367       .  A
C355        N360   1.376       .  A
N356        C357   1.365       .  A
C357        N358   1.359       .  A
N358        C359   1.360       .  A
C359        N360   1.374       .  A
C361        N830   1.363       .  A
C361       N1302   1.373   1_455  A
N362        C363   1.359       .  A
N362        C829   1.363   1_545  A
C363       N1300   1.362   1_455  A
N364       C1299   1.362       .  A
N364        C833   1.364   1_545  A
C365        N366   1.373       .  A
C365        N832   1.368       .  A
N366       C1297   1.373       .  A
C367        N368   1.363       .  A
C367        N372   1.362       .  A
N368        C369   1.365       .  A
C369        N370   1.377       .  A
N370        C371   1.375       .  A
C371        N372   1.361       .  A
C373        N374   1.360       .  A
C373        N378   1.365       .  A
N374        C375   1.362       .  A
C375        N376   1.375       .  A
N376        C377   1.375       .  A
C377        N378   1.366       .  A
C379        C380   1.402       .  A
C379        C384   1.395       .  A
C379        H386   1.083       .  S
C380        C381   1.425       .  A
C381        C382   1.393       .  A
C381       Br388   1.922       .  S
C382        C383   1.396       .  A
C382        H387   1.083       .  S
C383        C384   1.417       .  A
C384       Br385   1.924   1_545  S
C389        C390   1.401       .  A
C389        C394   1.393       .  A
C389        H396   1.083       .  S
C390        C391   1.418       .  A
C391        C392   1.390       .  A
C391       Br398   1.926       .  S
C392        C393   1.401       .  A
C392        H397   1.083       .  S
C393        C394   1.419       .  A
C394       Br395   1.924       .  S
C399        C400   1.401   1_554  A
C399        C404   1.387       .  A
C399        H406   1.084       .  S
C400        C401   1.411       .  A
C401        C402   1.390       .  A
C401       Br408   1.922       .  S
C402        C403   1.400       .  A
C402        H407   1.084       .  S
C403        C404   1.408   1_556  A
C404       Br405   1.922       .  S
C409        C410   1.404       .  A
C409        C414   1.397       .  A
C409        H416   1.083       .  S
C410        C411   1.419       .  A
C411        C412   1.390       .  A
C411       Br418   1.926       .  S
C412        C413   1.401       .  A
C412        H417   1.083       .  S
C413        C414   1.416       .  A
C414       Br415   1.922       .  S
C419        C420   1.400       .  A
C419        C424   1.382       .  A
C419        H426   1.083       .  S
C420        C421   1.412       .  A
C421        C422   1.388       .  A
C421       Br428   1.921       .  S
C422        C423   1.402       .  A
C422        H427   1.084       .  S
C423        C424   1.418       .  A
C424       Br425   1.929       .  S
C429        C430   1.405       .  A
C429        C434   1.388       .  A
C429        H436   1.083       .  S
C430        C517   1.472       .  S
C430        C899   1.411       .  A
C431        C432   1.389       .  A
C431        C898   1.412       .  A
C431       Br438   1.924   1_556  S
C432        C901   1.405       .  A
C432        H437   1.084       .  S
C433        C434   1.414       .  A
C433        C900   1.406       .  A
C434       Br435   1.926   1_545  S
C439        C440   1.402       .  A
C439        C444   1.390       .  A
C439        H446   1.084   1_554  S
C440       C1377   1.417       .  A
C441        C442   1.388       .  A
C441       C1376   1.417       .  A
C441       Br448   1.926       .  S
C442       C1379   1.401       .  A
C442        H447   1.083       .  S
C443        C444   1.415       .  A
C443       C1378   1.401       .  A
C444       Br445   1.924   1_554  S
C449        C450   1.398       .  A
C449        C454   1.383       .  A
C449        H456   1.084       .  S
C450        C451   1.402       .  A
C451        C452   1.386       .  A
C451       Br458   1.921       .  S
C452        C453   1.401       .  A
C452        H457   1.084       .  S
C453        C454   1.409       .  A
C454       Br455   1.924       .  S
C459        C460   1.412       .  A
C459        C464   1.393       .  A
C459        H466   1.084       .  S
C460        C461   1.405       .  A
C461        C462   1.394       .  A
C461       Br468   1.920       .  S
C462        C463   1.413       .  A
C462        H467   1.083       .  S
C463        C464   1.409       .  A
C464       Br465   1.922       .  S
O469       Ni475   1.932       .  S
O469        C490   1.271       .  A
O470       Ni493   1.973       .  S
O470        C479   1.286       .  A
O471       Ni475   1.905       .  S
O471       Ni493   1.901       .  S
O471       Ni487   1.914       .  S
O471        H494   0.966       .  S
C472        O489   1.279       .  A
C472        O481   1.275       .  A
C472        C513   1.453       .  S
O473       Ni492   1.910       .  S
O473        C479   1.266       .  A
O474       Ni492   1.908       .  S
O474        C476   1.265       .  A
Ni475       O478   1.918       .  S
Ni475       O480   1.909       .  S
C476        O486   1.284       .  A
C476        C511   1.475       .  S
O477       Ni493   1.932       .  S
O477        C483   1.291       .  A
O478        C483   1.278       .  A
C479        C811   1.492       .  S
O480        C482   1.267       .  A
O481       Ni492   1.906       .  S
C482        O488   1.281       .  A
C482        C503   1.473       .  S
C483        C497   1.467       .  S
H484        O485   0.966       .  S
O485       Ni493   1.924       .  S
O485       Ni487   1.899       .  S
O485       Ni492   1.904       .  S
O486       Ni487   1.947       .  S
Ni487       O491   1.945       .  S
Ni487       O489   1.914       .  S
O488       Ni493   1.931       .  S
C490        O491   1.279       .  A
C490        C841   1.486       .  S
C495        C596   1.480       .  S
C495        N496   1.367       .  A
C495       N1436   1.365       .  A
N496        C497   1.363       .  A
C497        N498   1.341       .  A
N498       C1435   1.349       .  A
C499        C928   1.482       .  S
C499       N1434   1.349   1_455  A
C499        N500   1.364       .  A
N500       C1431   1.365   1_455  A
C501        C666   1.469       .  S
C501        N502   1.373       .  A
N502        C503   1.374       .  A
C503        N504   1.350       .  A
C505        C918   1.450       .  S
C505        N506   1.346   1_565  A
C507        C693   1.489       .  S
C507        N508   1.355       .  A
C507        N512   1.374   1_556  A
N508        C509   1.359   1_556  A
C509        C908   1.472       .  S
C509       N1446   1.346       .  A
N510       C1445   1.346       .  A
N510        C511   1.344       .  A
C511       N1448   1.372       .  A
N512       C1447   1.372   1_455  A
C513        N518   1.353   1_554  A
N514        C515   1.353   1_545  A
C515        C548   1.444       .  S
C515        N516   1.348   1_565  A
N516        C517   1.354       .  A
O519       Ni525   1.928       .  S
O519        C540   1.269       .  A
O520       Ni543   1.964       .  S
O520        C529   1.280       .  A
O521       Ni525   1.926       .  S
O521       Ni543   1.928       .  S
O521       Ni537   1.913       .  S
O521        H544   0.966       .  S
C522        O539   1.282       .  A
C522        O531   1.273       .  A
C522        C747   1.451       .  S
O523       Ni542   1.935       .  S
O523        C529   1.269       .  A
O524       Ni542   1.900       .  S
O524        C526   1.265       .  A
Ni525       O528   1.903       .  S
Ni525       O530   1.914       .  S
C526        O536   1.275       .  A
C526        C645   1.460       .  S
O527       Ni543   1.886       .  S
O527        C533   1.270       .  A
O528        C533   1.271       .  A
C529        C817   1.505       .  S
O530        C532   1.268       .  A
O531       Ni542   1.906       .  S
C532        O538   1.281       .  A
C532        C709   1.472       .  S
C533        C573   1.439       .  S
H534        O535   0.966       .  S
O535       Ni543   1.898       .  S
O535       Ni537   1.926       .  S
O535       Ni542   1.925       .  S
O536       Ni537   1.924       .  S
Ni537       O541   1.974       .  S
Ni537       O539   1.920       .  S
O538       Ni543   1.935       .  S
C540        O541   1.284       .  A
C540        C823   1.508       .  S
O545       Ni551   1.921       .  S
O545        C566   1.268       .  A
O546       Ni569   1.953       .  S
O546        C555   1.279       .  A
O547       Ni551   1.928       .  S
O547       Ni569   1.925       .  S
O547       Ni563   1.909       .  S
O547        H570   0.966       .  S
C548        O565   1.280       .  A
C548        O557   1.277       .  A
O549       Ni568   1.941       .  S
O549        C555   1.273       .  A
O550       Ni568   1.914       .  S
O550        C552   1.267       .  A
Ni551       O554   1.900       .  S
Ni551       O556   1.910       .  S
C552        O562   1.281       .  A
C552        C585   1.482       .  S
O553       Ni569   1.896       .  S
O553        C559   1.271       .  A
O554        C559   1.270       .  A
C555        C833   1.498       .  S
O556        C558   1.267       .  A
O557       Ni568   1.915       .  S
C558        O564   1.283       .  A
C558        C579   1.483       .  S
C559        C571   1.436       .  S
H560        O561   0.965       .  S
O561       Ni569   1.896       .  S
O561       Ni563   1.916       .  S
O561       Ni568   1.917       .  S
O562       Ni563   1.938       .  S
Ni563       O567   1.968       .  S
Ni563       O565   1.909       .  S
O564       Ni569   1.956       .  S
C566        O567   1.281       .  A
C566        C837   1.500       .  S
C571        N572   1.349       .  A
C571        N576   1.348       .  A
N572        C573   1.352       .  A
C573        N574   1.350       .  A
N574        C575   1.349       .  A
C575        C888   1.464       .  S
C575        N576   1.354       .  A
C577        N578   1.373       .  A
N578        C579   1.370       .  A
C579        N580   1.351   1_565  A
C581        C881   1.482       .  S
C581        N582   1.363       .  A
C583        C622   1.486       .  S
C583        N584   1.377   1_554  A
C583        N588   1.352       .  A
N584        C585   1.376       .  A
C585        N586   1.349       .  A
N586        C587   1.346       .  A
C587        C868   1.458       .  S
C587        N588   1.351   1_556  A
O589       Ni595   1.923       .  S
O589        C610   1.273       .  A
O590       Ni613   1.955       .  S
O590        C599   1.278       .  A
O591       Ni595   1.897       .  S
O591      Ni1549   1.900   1_455  S
O591       Ni607   1.922       .  S
O591        H614   0.966       .  S
C592        O609   1.291   1_655  A
C592       O1537   1.274       .  A
C592       C1583   1.472       .  S
O593       Ni612   1.910       .  S
O593        C599   1.268       .  A
O594       Ni612   1.920       .  S
O594        C596   1.269       .  A
Ni595       O598   1.914       .  S
Ni595       O600   1.919       .  S
C596       O1542   1.273       .  A
O597       Ni613   1.921       .  S
O597       C1539   1.283       .  A
O598        C603   1.279       .  A
C599        C819   1.483       .  S
O600        C602   1.269       .  A
O601       Ni612   1.910       .  S
O601       C1528   1.274       .  A
C602       O1544   1.285       .  A
C602        C787   1.492       .  S
C603       O1533   1.283   1_455  A
C603        C711   1.457       .  S
H604        O605   0.966       .  S
O605       Ni613   1.923       .  S
O605      Ni1543   1.902       .  S
O605       Ni612   1.910       .  S
O606       Ni607   1.940       .  S
O606       C1532   1.273   1_455  A
Ni607       O611   1.944       .  S
Ni607       O609   1.944       .  S
Ni607      O1541   1.902   1_455  S
O608       Ni613   1.948       .  S
O608       C1538   1.285       .  A
C610        O611   1.278       .  A
C610        C825   1.481       .  S
Ni613      O1527   1.900       .  S
O615       Ni621   1.929       .  S
O615        C636   1.270       .  A
O616       Ni639   1.948       .  S
O616        C625   1.279       .  A
O617       Ni621   1.925       .  S
O617       Ni639   1.921       .  S
O617       Ni633   1.918       .  S
O617        H640   0.966       .  S
C618        O635   1.281       .  A
C618        O627   1.279       .  A
C618        C801   1.457       .  S
O619       Ni638   1.938       .  S
O619        C625   1.274       .  A
O620       Ni638   1.916       .  S
O620        C622   1.267       .  A
Ni621       O624   1.914       .  S
Ni621       O626   1.919       .  S
C622        O632   1.283       .  A
O623       Ni639   1.919       .  S
O623        C629   1.281       .  A
O624        C629   1.273       .  A
C625        C813   1.492       .  S
O626        C628   1.270       .  A
O627       Ni638   1.921       .  S
C628        O634   1.277       .  A
C628        C651   1.482       .  S
C629        C641   1.464       .  S
H630        O631   0.966       .  S
O631       Ni639   1.909       .  S
O631       Ni633   1.908       .  S
O631       Ni638   1.909       .  S
O632       Ni633   1.947       .  S
Ni633       O637   1.960       .  S
Ni633       O635   1.921       .  S
O634       Ni639   1.943       .  S
C636        O637   1.279       .  A
C636        C843   1.498       .  S
C641        N642   1.352       .  A
C641        N646   1.366       .  A
N642        C643   1.352       .  A
C643        C921   1.455       .  S
C643        N644   1.347       .  A
N644        C645   1.347       .  A
C645        N646   1.362       .  A
C647       C1528   1.472       .  S
C647       N1584   1.345       .  A
C647        N652   1.367       .  A
N648       C1583   1.345   1_455  A
N648        C649   1.348       .  A
C649        C858   1.479       .  S
C649        N650   1.362       .  A
N650       C1587   1.360   1_455  A
C651       N1586   1.360       .  A
C651        N652   1.367       .  A
O653       Ni659   1.928       .  S
O653        C674   1.273       .  A
O654       Ni677   1.965       .  S
O654        C663   1.281       .  A
O655       Ni659   1.911       .  S
O655       Ni671   1.936       .  S
O655        H678   0.966       .  S
C656        O673   1.292       .  A
O657       Ni676   1.922       .  S
O657        C663   1.271       .  A
O658       Ni676   1.921       .  S
O658        C660   1.271       .  A
Ni659       O662   1.918       .  S
Ni659       O664   1.914       .  S
C660        C795   1.465       .  S
O661       Ni677   1.939       .  S
O662        C667   1.276       .  A
C663        C827   1.498       .  S
O664        C666   1.269       .  A
O665       Ni676   1.921       .  S
C667        C749   1.477       .  S
H668        O669   0.966       .  S
O669       Ni677   1.927       .  S
O669       Ni676   1.915       .  S
O670       Ni671   1.907       .  S
Ni671       O675   1.946       .  S
Ni671       O673   1.967       .  S
O672       Ni677   1.931       .  S
C674        O675   1.277       .  A
C674        C821   1.485       .  S
O679       Ni685   1.936       .  S
O679        C700   1.274       .  A
O680       Ni703   1.966       .  S
O680        C689   1.282       .  A
O681       Ni685   1.915       .  S
O681       Ni703   1.915       .  S
O681       Ni697   1.935       .  S
O681        H704   0.966       .  S
C682        O699   1.287       .  A
C682        O691   1.274       .  A
C682        C705   1.491       .  S
O683       Ni702   1.926       .  S
O683        C689   1.270       .  A
O684       Ni702   1.910       .  S
O684        C686   1.269       .  A
Ni685       O688   1.926       .  S
Ni685       O690   1.914       .  S
C686        O696   1.270       .  A
C686        C713   1.459       .  S
O687       Ni703   1.952       .  S
O687        C693   1.290       .  A
O688        C693   1.276       .  A
C689        C839   1.500       .  S
O690        C692   1.271       .  A
O691       Ni702   1.921       .  S
C692        O698   1.273       .  A
C692        C755   1.461       .  S
H694        O695   0.966       .  S
O695       Ni703   1.932       .  S
O695       Ni697   1.917       .  S
O695       Ni702   1.917       .  S
O696       Ni697   1.917       .  S
Ni697       O701   1.943       .  S
Ni697       O699   1.955       .  S
O698       Ni703   1.908       .  S
C700        O701   1.276       .  A
C700        C831   1.489       .  S
C705        N706   1.364       .  A
C705        N710   1.375       .  A
N706        C707   1.363       .  A
C707        C848   1.472       .  S
C707        N708   1.343       .  A
N708        C709   1.340       .  A
C709        N710   1.366       .  A
C711        N712   1.357       .  A
C711       N1652   1.350   1_455  A
N712        C713   1.356       .  A
C713        N714   1.357   1_455  A
N714       C1651   1.360       .  A
C715        C878   1.477       .  S
C715       N1650   1.360       .  A
C715        N716   1.352       .  A
N716       C1647   1.350       .  A
O717       Ni723   1.939       .  S
O717        C738   1.273       .  A
O718       Ni741   1.974       .  S
O718        C727   1.287       .  A
O719       Ni723   1.915       .  S
O719       Ni741   1.912       .  S
O719       Ni735   1.916       .  S
O719        H742   0.966       .  S
C720        O737   1.275       .  A
C720        O729   1.275       .  A
C720        C743   1.477       .  S
O721       Ni740   1.930       .  S
O721        C727   1.271       .  A
O722       Ni740   1.911       .  S
O722        C724   1.269       .  A
Ni723       O726   1.922       .  S
Ni723       O728   1.908       .  S
C724        O734   1.276       .  A
C724        C751   1.465       .  S
O725       Ni741   1.950       .  S
O725        C731   1.293       .  A
O726        C731   1.276       .  A
C727        C845   1.505       .  S
O728        C730   1.269       .  A
O729       Ni740   1.924       .  S
C730        O736   1.274       .  A
C730        C757   1.458       .  S
C731        C805   1.484   1_554  S
H732        O733   0.966       .  S
O733       Ni741   1.934       .  S
O733       Ni735   1.917       .  S
O733       Ni740   1.917       .  S
O734       Ni735   1.924       .  S
Ni735       O739   1.934       .  S
Ni735       O737   1.926       .  S
O736       Ni741   1.911       .  S
C738        O739   1.272       .  A
C738        C815   1.484       .  S
C743        N744   1.363       .  A
C743        N748   1.359       .  A
N744        C745   1.364       .  A
C745        C931   1.484       .  S
C745        N746   1.352       .  A
N746        C747   1.346       .  A
C747        N748   1.357       .  A
C749        N750   1.366       .  A
N750        C751   1.362       .  A
N752        C753   1.349       .  A
C753        C861   1.479       .  S
C753        N754   1.360       .  A
C755        N756   1.364       .  A
C755        N760   1.353       .  A
N756        C757   1.364   1_556  A
C757        N758   1.350       .  A
N758        C759   1.346   1_554  A
C759        C871   1.454       .  S
C759        N760   1.349       .  A
O761       Ni767   1.926       .  S
O761        C782   1.271       .  A
O762       Ni785   1.970       .  S
O762        C771   1.284       .  A
O763       Ni767   1.904       .  S
O763       Ni785   1.904       .  S
O763       Ni779   1.919       .  S
O763        H786   0.966       .  S
C764        O781   1.285       .  A
C764        O773   1.273       .  A
C764        C799   1.452       .  S
O765       Ni784   1.905       .  S
O765        C771   1.265       .  A
O766       Ni784   1.915       .  S
O766        C768   1.266       .  A
Ni767       O770   1.907       .  S
Ni767       O772   1.910       .  S
C768        O778   1.278       .  A
C768        C807   1.477       .  S
O769       Ni785   1.909       .  S
O769        C775   1.281       .  A
O770        C775   1.276       .  A
C771        C829   1.490       .  S
O772        C774   1.266       .  A
O773       Ni784   1.895       .  S
C774        O780   1.287       .  A
C774        C789   1.476       .  S
C775        C793   1.449       .  S
H776        O777   0.966       .  S
O777       Ni785   1.913       .  S
O777       Ni779   1.894       .  S
O777       Ni784   1.903       .  S
O778       Ni779   1.939       .  S
Ni779       O783   1.942       .  S
Ni779       O781   1.925       .  S
O780       Ni785   1.945       .  S
C782        O783   1.277       .  A
C782        C835   1.479       .  S
C787        N788   1.381       .  A
C787        N792   1.355   1_455  A
N788        C789   1.379       .  A
C789        N790   1.338       .  A
N790       C1727   1.336   1_455  A
C791        C891   1.462       .  S
C791       N1726   1.336       .  A
C791       N1728   1.353       .  A
N792       C1727   1.353       .  A
C793        N794   1.354       .  A
C793        N798   1.345       .  A
N794        C795   1.354       .  A
N796        C797   1.360       .  A
C797        C851   1.465       .  S
C799        N800   1.359       .  A
C799        N804   1.347       .  A
N800       C1737   1.356   1_456  A
C801       N1736   1.356   1_554  A
C801        N802   1.355       .  A
N802       C1739   1.358       .  A
C803        C911   1.472       .  S
C803       N1738   1.358       .  A
C803        N804   1.349   1_554  A
C805        N806   1.373       .  A
C805        N810   1.350       .  A
C807        N808   1.349   1_565  A
C809        C901   1.472       .  S
C809        N810   1.355       .  A
C811       N1752   1.364       .  A
N812        C813   1.370       .  A
C813       N1750   1.364       .  A
N814       C1749   1.364   1_455  A
C815        N816   1.362       .  A
N816       C1747   1.364   1_455  A
C817        N818   1.373       .  A
C817        N822   1.371       .  A
N818        C819   1.372       .  A
C819        N820   1.357       .  A
N820        C821   1.354       .  A
C821        N822   1.369       .  A
C823        N824   1.368       .  A
C823        N828   1.378       .  A
N824        C825   1.366       .  A
C825        N826   1.357       .  A
N826        C827   1.358       .  A
C827        N828   1.375       .  A
C829       N1770   1.373   1_455  A
N830        C831   1.359       .  A
C831       N1768   1.365   1_455  A
N832       C1767   1.365       .  A
C833        N834   1.373       .  A
N834       C1765   1.373       .  A
C835        N836   1.363       .  A
C835        N840   1.361       .  A
N836        C837   1.364       .  A
C837        N838   1.376       .  A
N838        C839   1.375       .  A
C839        N840   1.361       .  A
C841        N842   1.361       .  A
C841        N846   1.366       .  A
N842        C843   1.363       .  A
C843        N844   1.374       .  A
N844        C845   1.374       .  A
C845        N846   1.366       .  A
C847        C848   1.402       .  A
C847        C852   1.395       .  A
C847        H854   1.083       .  S
C848        C849   1.421       .  A
C849        C850   1.386       .  A
C849       Br856   1.925       .  S
C850        C851   1.395       .  A
C850        H855   1.084       .  S
C851        C852   1.411       .  A
C852       Br853   1.921       .  S
C857        C858   1.403       .  A
C857        C862   1.394       .  A
C857        H864   1.083       .  S
C858        C859   1.419       .  A
C859        C860   1.390       .  A
C859       Br866   1.926       .  S
C860        C861   1.401       .  A
C860        H865   1.083       .  S
C861        C862   1.417       .  A
C862       Br863   1.924       .  S
C867        C868   1.401   1_554  A
C867        C872   1.387       .  A
C867        H874   1.084       .  S
C868        C869   1.411       .  A
C869        C870   1.390       .  A
C869       Br876   1.922       .  S
C870        C871   1.400       .  A
C870        H875   1.084       .  S
C871        C872   1.407   1_556  A
C872       Br873   1.922       .  S
C877        C878   1.401       .  A
C877        C882   1.392       .  A
C877        H884   1.083       .  S
C878        C879   1.414       .  A
C879        C880   1.393       .  A
C879       Br886   1.924       .  S
C880        C881   1.403       .  A
C880        H885   1.083       .  S
C881        C882   1.419       .  A
C882       Br883   1.921       .  S
C887        C888   1.399       .  A
C887        C892   1.380       .  A
C887        H894   1.083       .  S
C888        C889   1.412       .  A
C889        C890   1.388       .  A
C889       Br896   1.921       .  S
C890        C891   1.402       .  A
C890        H895   1.084       .  S
C891        C892   1.419       .  A
C892       Br893   1.929       .  S
C897        C898   1.405       .  A
C897        C902   1.388       .  A
C897        H904   1.083       .  S
C899        C900   1.389       .  A
C899       Br906   1.923   1_556  S
C900        H905   1.084       .  S
C901        C902   1.414       .  A
C902       Br903   1.926       .  S
C907        C908   1.401       .  A
C907        C912   1.389       .  A
C907        H914   1.084   1_554  S
C908       C1845   1.417       .  A
C909       C1844   1.417       .  A
C909        C910   1.388       .  A
C909       Br916   1.926       .  S
C910       C1847   1.401       .  A
C910        H915   1.083       .  S
C911       C1846   1.401       .  A
C911        C912   1.416       .  A
C912       Br913   1.925   1_554  S
C917        C918   1.398       .  A
C917        C922   1.381       .  A
C917        H924   1.084       .  S
C918        C919   1.404       .  A
C919        C920   1.392       .  A
C919       Br926   1.921   1_565  S
C920        C921   1.404       .  A
C920        H925   1.084       .  S
C921        C922   1.411       .  A
C922       Br923   1.925       .  S
C927        C928   1.411       .  A
C927        C932   1.393       .  A
C927        H934   1.084       .  S
C928        C929   1.402       .  A
C929        C930   1.395       .  A
C929       Br936   1.920       .  S
C930        C931   1.415       .  A
C930        H935   1.083       .  S
C931        C932   1.410       .  A
C932       Br933   1.921       .  S
O937       Ni943   1.935       .  S
O937        C958   1.273       .  A
O938       Ni961   1.965       .  S
O938        C947   1.283       .  A
O939       Ni943   1.904       .  S
O939       Ni961   1.900       .  S
O939       Ni955   1.914       .  S
O939        H962   0.966       .  S
C940        O957   1.279       .  A
C940        O949   1.275       .  A
C940        C981   1.453       .  S
O941       Ni960   1.910       .  S
O941        C947   1.266       .  A
O942       Ni960   1.909       .  S
O942        C944   1.265       .  A
Ni943       O946   1.922       .  S
Ni943       O948   1.912       .  S
C944        O954   1.284       .  A
C944        C979   1.476       .  S
O945       Ni961   1.931       .  S
O945        C951   1.291       .  A
O946        C951   1.279       .  A
C947       C1279   1.487       .  S
O948        C950   1.268       .  A
O949       Ni960   1.905       .  S
C950        O956   1.279       .  A
C950        C971   1.477       .  S
C951        C965   1.469       .  S
H952        O953   0.966       .  S
O953       Ni961   1.924       .  S
O953       Ni955   1.898       .  S
O953       Ni960   1.903       .  S
O954       Ni955   1.949       .  S
Ni955       O959   1.940       .  S
Ni955       O957   1.916       .  S
O956       Ni961   1.932       .  S
C958        O959   1.278       .  A
C958       C1309   1.484       .  S
C963       C1064   1.481       .  S
C963        N964   1.367       .  A
N964        C965   1.363       .  A
C965        N966   1.343       .  A
C967       C1396   1.482       .  S
C967        N968   1.364       .  A
C969       C1134   1.470       .  S
C969        N970   1.372       .  A
C969       N1442   1.345       .  A
N970        C971   1.373       .  A
C971        N972   1.353       .  A
N972       C1441   1.350   1_545  A
C973       C1386   1.441       .  S
C973       N1440   1.345       .  A
C973        N974   1.343       .  A
N974       C1437   1.346       .  A
C975       C1161   1.488       .  S
C975        N976   1.355       .  A
C975        N980   1.374   1_556  A
N976        C977   1.358   1_556  A
C977       C1376   1.472       .  S
N978        C979   1.344   1_455  A
C981       N1450   1.356   1_554  A
C981        N986   1.354   1_554  A
N982       C1449   1.356   1_556  A
N982        C983   1.354       .  A
C983       C1016   1.445       .  S
C983        N984   1.348       .  A
N984        C985   1.354       .  A
C985       C1834   1.473       .  S
C985       N1454   1.353       .  A
N986       C1453   1.353       .  A
O987       Ni993   1.928       .  S
O987       C1008   1.269       .  A
O988      Ni1011   1.961       .  S
O988        C997   1.281       .  A
O989       Ni993   1.924       .  S
O989      Ni1011   1.929       .  S
O989      Ni1005   1.916       .  S
O989       H1012   0.966       .  S
C990       O1007   1.283       .  A
C990        O999   1.275       .  A
C990       C1215   1.449       .  S
O991      Ni1010   1.937       .  S
O991        C997   1.270       .  A
O992      Ni1010   1.899       .  S
O992        C994   1.264       .  A
Ni993       O996   1.906       .  S
Ni993       O998   1.911       .  S
C994       O1004   1.274       .  A
C994       C1113   1.460       .  S
O995      Ni1011   1.889       .  S
O995       C1001   1.270       .  A
O996       C1001   1.271       .  A
C997       C1285   1.503       .  S
O998       C1000   1.268       .  A
O999      Ni1010   1.909       .  S
C1000      O1006   1.282       .  A
C1000      C1177   1.473       .  S
C1001      C1041   1.443       .  S
H1002      O1003   0.964       .  S
O1003     Ni1011   1.893       .  S
O1003     Ni1005   1.916       .  S
O1003     Ni1010   1.917       .  S
O1004     Ni1005   1.920       .  S
Ni1005     O1009   1.970       .  S
Ni1005     O1007   1.921       .  S
O1006     Ni1011   1.942       .  S
C1008      O1009   1.282       .  A
C1008      C1291   1.504       .  S
O1013     Ni1019   1.921       .  S
O1013      C1034   1.267       .  A
O1014     Ni1037   1.959       .  S
O1014      C1023   1.280       .  A
O1015     Ni1019   1.930       .  S
O1015     Ni1037   1.927       .  S
O1015     Ni1031   1.909       .  S
O1015      H1038   0.966       .  S
C1016      O1033   1.279       .  A
C1016      O1025   1.276       .  A
O1017     Ni1036   1.939       .  S
O1017      C1023   1.273       .  A
O1018     Ni1036   1.914       .  S
O1018      C1020   1.268       .  A
Ni1019     O1022   1.900       .  S
Ni1019     O1024   1.913       .  S
C1020      O1030   1.280       .  A
C1020      C1053   1.479       .  S
O1021     Ni1037   1.901       .  S
O1021      C1027   1.273       .  A
O1022      C1027   1.270       .  A
C1023      C1301   1.503       .  S
O1024      C1026   1.267       .  A
O1025     Ni1036   1.913       .  S
C1026      O1032   1.281       .  A
C1026      C1047   1.483       .  S
C1027      C1039   1.440       .  S
H1028      O1029   0.964       .  S
O1029     Ni1037   1.901       .  S
O1029     Ni1031   1.919       .  S
O1029     Ni1036   1.921       .  S
O1030     Ni1031   1.934       .  S
Ni1031     O1035   1.971       .  S
Ni1031     O1033   1.909       .  S
O1032     Ni1037   1.950       .  S
C1034      O1035   1.282       .  A
C1034      C1305   1.502       .  S
C1039      N1040   1.351       .  A
C1039      N1044   1.348       .  A
N1040      C1041   1.352       .  A
C1041      N1042   1.350       .  A
N1042      C1043   1.349       .  A
C1043      C1356   1.466       .  S
C1043      N1044   1.354       .  A
C1045      C1592   1.494       .  S
C1045      N1046   1.375       .  A
C1045      N1518   1.358       .  A
N1046      C1047   1.369       .  A
C1047      N1048   1.349       .  A
N1048      C1517   1.351       .  A
C1049      C1349   1.481       .  S
C1049      N1516   1.353       .  A
C1049      N1050   1.362       .  A
N1050      C1513   1.356   1_545  A
C1051      C1090   1.482       .  S
C1051      N1052   1.375   1_554  A
C1051      N1056   1.352       .  A
N1052      C1053   1.374       .  A
C1053      N1054   1.349       .  A
N1054      C1055   1.346       .  A
C1055      C1336   1.459       .  S
C1055      N1056   1.351   1_556  A
O1057     Ni1063   1.927       .  S
O1057      C1078   1.274       .  A
O1058     Ni1081   1.958       .  S
O1058      C1067   1.278       .  A
O1059     Ni1063   1.898       .  S
O1059     Ni1075   1.922       .  S
O1059      H1082   0.966       .  S
C1060      O1077   1.292       .  A
O1061     Ni1080   1.909       .  S
O1061      C1067   1.267       .  A
O1062     Ni1080   1.919       .  S
O1062      C1064   1.269       .  A
Ni1063     O1066   1.918       .  S
Ni1063     O1068   1.918       .  S
O1065     Ni1081   1.915       .  S
O1066      C1071   1.279       .  A
C1067      C1287   1.486       .  S
O1068      C1070   1.269       .  A
O1069     Ni1080   1.906       .  S
C1070      C1255   1.491       .  S
C1071      C1179   1.456       .  S
H1072      O1073   0.966       .  S
O1073     Ni1081   1.919       .  S
O1073     Ni1080   1.910       .  S
O1074     Ni1075   1.943       .  S
Ni1075     O1079   1.945       .  S
Ni1075     O1077   1.944       .  S
O1076     Ni1081   1.949   1_455  S
C1078      O1079   1.279       .  A
C1078      C1293   1.484       .  S
O1083     Ni1089   1.927       .  S
O1083      C1104   1.270       .  A
O1084     Ni1107   1.951       .  S
O1084      C1093   1.279       .  A
O1085     Ni1089   1.925       .  S
O1085     Ni1107   1.919       .  S
O1085     Ni1101   1.917       .  S
O1085      H1108   0.966       .  S
C1086      O1103   1.282       .  A
C1086      O1095   1.279       .  A
C1086      C1269   1.455       .  S
O1087     Ni1106   1.939       .  S
O1087      C1093   1.274       .  A
O1088     Ni1106   1.914       .  S
O1088      C1090   1.267       .  A
Ni1089     O1092   1.914       .  S
Ni1089     O1094   1.919       .  S
C1090      O1100   1.281       .  A
O1091     Ni1107   1.916       .  S
O1091      C1097   1.281       .  A
O1092      C1097   1.273       .  A
C1093      C1281   1.494       .  S
O1094      C1096   1.270       .  A
O1095     Ni1106   1.920       .  S
C1096      O1102   1.277       .  A
C1096      C1119   1.482       .  S
C1097      C1109   1.462       .  S
H1098      O1099   0.966       .  S
O1099     Ni1107   1.909       .  S
O1099     Ni1101   1.910       .  S
O1099     Ni1106   1.910       .  S
O1100     Ni1101   1.943       .  S
Ni1101     O1105   1.961       .  S
Ni1101     O1103   1.921       .  S
O1102     Ni1107   1.944       .  S
C1104      O1105   1.279       .  A
C1104      C1311   1.499       .  S
C1109      N1110   1.349       .  A
C1109      N1114   1.366       .  A
N1110      C1111   1.349       .  A
C1111      C1389   1.447       .  S
C1111      N1112   1.345       .  A
N1112      C1113   1.347       .  A
C1113      N1114   1.364       .  A
C1115      N1120   1.368       .  A
N1116      C1117   1.348       .  A
C1117      C1326   1.478       .  S
C1117      N1118   1.362       .  A
C1119      N1120   1.367       .  A
O1121     Ni1127   1.929       .  S
O1121      C1142   1.274       .  A
O1122     Ni1145   1.967       .  S
O1122      C1131   1.281       .  A
O1123     Ni1127   1.907       .  S
O1123     Ni1613   1.910   1_545  S
O1123     Ni1139   1.932       .  S
O1123      H1146   0.966       .  S
C1124      O1141   1.292   1_565  A
C1124      O1601   1.275       .  A
C1124      C1513   1.493       .  S
O1125     Ni1144   1.920       .  S
O1125      C1131   1.269       .  A
O1126     Ni1144   1.913       .  S
O1126      C1128   1.269       .  A
Ni1127     O1130   1.917       .  S
Ni1127     O1132   1.913       .  S
C1128      O1606   1.265       .  A
C1128      C1263   1.456       .  S
O1129     Ni1145   1.941       .  S
O1129      C1603   1.285       .  A
O1130      C1135   1.276       .  A
C1131      C1295   1.497       .  S
O1132      C1134   1.269       .  A
O1133     Ni1144   1.917       .  S
O1133      C1592   1.273       .  A
C1134      O1608   1.281   1_545  A
C1135      O1597   1.286   1_545  A
C1135      C1217   1.474       .  S
H1136      O1137   0.966       .  S
O1137     Ni1145   1.929       .  S
O1137     Ni1607   1.915       .  S
O1137     Ni1144   1.919       .  S
O1138     Ni1139   1.913       .  S
O1138      C1596   1.265   1_545  A
Ni1139     O1143   1.937       .  S
Ni1139     O1141   1.961       .  S
Ni1139     O1605   1.911   1_545  S
O1140     Ni1145   1.924       .  S
O1140      C1602   1.281       .  A
C1142      O1143   1.274       .  A
C1142      C1289   1.479       .  S
Ni1145     O1591   1.912       .  S
O1147     Ni1153   1.938       .  S
O1147      C1168   1.274       .  A
O1148     Ni1171   1.967       .  S
O1148      C1157   1.282       .  A
O1149     Ni1153   1.911       .  S
O1149     Ni1171   1.911       .  S
O1149     Ni1165   1.928       .  S
O1149      H1172   0.966       .  S
C1150      O1167   1.284       .  A
C1150      O1159   1.275       .  A
C1150      C1173   1.493       .  S
O1151     Ni1170   1.932       .  S
O1151      C1157   1.272       .  A
O1152     Ni1170   1.910       .  S
O1152      C1154   1.270       .  A
Ni1153     O1156   1.927       .  S
Ni1153     O1158   1.912       .  S
C1154      O1164   1.269       .  A
C1154      C1181   1.459       .  S
O1155     Ni1171   1.952       .  S
O1155      C1161   1.291       .  A
O1156      C1161   1.278       .  A
C1157      C1307   1.503       .  S
O1158      C1160   1.270       .  A
O1159     Ni1170   1.930       .  S
C1160      O1166   1.274       .  A
C1160      C1223   1.463       .  S
H1162      O1163   0.966       .  S
O1163     Ni1171   1.933       .  S
O1163     Ni1165   1.921       .  S
O1163     Ni1170   1.917       .  S
O1164     Ni1165   1.918       .  S
Ni1165     O1169   1.933       .  S
Ni1165     O1167   1.948       .  S
O1166     Ni1171   1.913       .  S
C1168      O1169   1.273       .  A
C1168      C1299   1.484       .  S
C1173      N1174   1.365       .  A
C1173      N1178   1.371       .  A
N1174      C1175   1.367       .  A
C1175      C1316   1.486       .  S
C1175      N1176   1.347       .  A
N1176      C1177   1.344       .  A
C1177      N1178   1.365       .  A
C1179      N1180   1.353       .  A
N1180      C1181   1.355       .  A
C1181      N1182   1.362       .  A
C1183      C1346   1.483       .  S
C1183      N1184   1.351       .  A
O1185     Ni1191   1.936       .  S
O1185      C1206   1.272       .  A
O1186     Ni1209   1.976       .  S
O1186      C1195   1.287       .  A
O1187     Ni1191   1.913       .  S
O1187     Ni1209   1.910       .  S
O1187     Ni1203   1.913       .  S
O1187      H1210   0.966       .  S
C1188      O1205   1.274       .  A
C1188      O1197   1.274       .  A
C1188      C1211   1.473       .  S
O1189     Ni1208   1.926       .  S
O1189      C1195   1.270       .  A
O1190     Ni1208   1.911       .  S
O1190      C1192   1.269       .  A
Ni1191     O1194   1.917       .  S
Ni1191     O1196   1.910       .  S
C1192      O1202   1.275       .  A
C1192      C1219   1.463       .  S
O1193     Ni1209   1.948       .  S
O1193      C1199   1.293       .  A
O1194      C1199   1.275       .  A
C1195      C1313   1.505       .  S
O1196      C1198   1.269       .  A
O1197     Ni1208   1.920       .  S
C1198      O1204   1.274       .  A
C1198      C1225   1.460       .  S
C1199      C1273   1.479   1_554  S
H1200      O1201   0.966       .  S
O1201     Ni1209   1.934       .  S
O1201     Ni1203   1.918       .  S
O1201     Ni1208   1.917       .  S
O1202     Ni1203   1.922       .  S
Ni1203     O1207   1.933       .  S
Ni1203     O1205   1.923       .  S
O1204     Ni1209   1.911       .  S
C1206      O1207   1.272       .  A
C1206      C1283   1.482       .  S
C1211      N1212   1.362       .  A
C1211      N1216   1.359       .  A
N1212      C1213   1.362       .  A
C1213      C1399   1.482       .  S
C1213      N1214   1.352       .  A
N1214      C1215   1.345       .  A
C1215      N1216   1.356       .  A
C1217      N1218   1.365       .  A
C1217      N1690   1.356   1_545  A
N1218      C1219   1.361       .  A
C1219      N1688   1.349   1_545  A
N1220      C1687   1.348       .  A
N1220      C1221   1.348       .  A
C1221      C1329   1.479       .  S
C1221      N1222   1.361       .  A
N1222      C1685   1.357       .  A
C1223      N1224   1.365       .  A
C1223      N1228   1.354       .  A
N1224      C1225   1.364   1_556  A
C1225      N1226   1.349       .  A
N1226      C1227   1.346   1_554  A
C1227      C1339   1.455       .  S
C1227      N1228   1.350       .  A
O1229     Ni1235   1.926       .  S
O1229      C1250   1.271       .  A
O1230     Ni1253   1.970       .  S
O1230      C1239   1.284       .  A
O1231     Ni1235   1.902       .  S
O1231     Ni1253   1.906       .  S
O1231     Ni1247   1.917       .  S
O1231      H1254   0.966       .  S
C1232      O1249   1.284       .  A
C1232      O1241   1.274       .  A
C1232      C1267   1.450       .  S
O1233     Ni1252   1.905       .  S
O1233      C1239   1.265       .  A
O1234     Ni1252   1.913       .  S
O1234      C1236   1.266       .  A
Ni1235     O1238   1.902       .  S
Ni1235     O1240   1.911       .  S
C1236      O1246   1.280       .  A
C1236      C1275   1.478       .  S
O1237     Ni1253   1.912       .  S
O1237      C1243   1.282       .  A
O1238      C1243   1.276       .  A
C1239      C1297   1.489       .  S
O1240      C1242   1.266       .  A
O1241     Ni1252   1.898       .  S
C1242      O1248   1.287       .  A
C1242      C1257   1.478       .  S
C1243      C1261   1.447       .  S
H1244      O1245   0.966       .  S
O1245     Ni1253   1.913       .  S
O1245     Ni1247   1.893       .  S
O1245     Ni1252   1.900       .  S
O1246     Ni1247   1.944       .  S
Ni1247     O1251   1.945       .  S
Ni1247     O1249   1.921       .  S
O1248     Ni1253   1.946       .  S
C1250      O1251   1.278       .  A
C1250      C1303   1.482       .  S
C1255      N1256   1.381       .  A
C1255      N1260   1.354       .  A
N1256      C1257   1.379       .  A
C1257      N1258   1.340       .  A
C1259      C1359   1.464       .  S
C1261      N1262   1.355       .  A
C1261      N1266   1.347       .  A
N1262      C1263   1.353       .  A
C1263      N1732   1.357       .  A
N1264      C1731   1.365   1_545  A
N1264      C1265   1.366       .  A
C1265      C1319   1.478       .  S
C1265      N1734   1.349   1_545  A
N1266      C1733   1.350       .  A
C1267      N1268   1.359       .  A
C1267      N1272   1.348       .  A
C1269      N1270   1.354   1_655  A
C1271      C1379   1.472       .  S
C1271      N1272   1.348   1_554  A
C1273      N1274   1.373       .  A
C1273      N1278   1.349       .  A
N1274      C1743   1.370   1_545  A
C1275      N1742   1.371       .  A
C1275      N1276   1.349       .  A
N1276      C1745   1.350       .  A
C1277      C1369   1.471       .  S
C1277      N1744   1.350       .  A
C1277      N1278   1.354       .  A
C1279      N1748   1.370   1_545  A
N1280      C1747   1.372       .  A
N1280      C1281   1.372       .  A
N1282      C1751   1.362       .  A
C1283      N1750   1.362   1_545  A
C1283      N1284   1.360       .  A
C1285      N1286   1.375       .  A
C1285      N1290   1.368       .  A
N1286      C1287   1.372       .  A
C1287      N1288   1.356       .  A
N1288      C1289   1.353       .  A
C1289      N1290   1.366       .  A
C1291      N1292   1.367       .  A
C1291      N1296   1.376       .  A
N1292      C1293   1.365       .  A
C1293      N1294   1.359       .  A
N1294      C1295   1.360       .  A
C1295      N1296   1.374       .  A
C1297      N1766   1.363       .  A
N1298      C1765   1.363   1_545  A
N1298      C1299   1.359       .  A
N1300      C1769   1.364   1_545  A
C1301      N1768   1.368       .  A
C1301      N1302   1.373       .  A
C1303      N1304   1.363       .  A
C1303      N1308   1.362       .  A
N1304      C1305   1.365       .  A
C1305      N1306   1.377       .  A
N1306      C1307   1.375       .  A
C1307      N1308   1.361       .  A
C1309      N1310   1.360       .  A
C1309      N1314   1.365       .  A
N1310      C1311   1.362       .  A
C1311      N1312   1.375       .  A
N1312      C1313   1.375       .  A
C1313      N1314   1.366       .  A
C1315      C1316   1.402       .  A
C1315      C1320   1.395       .  A
C1315      H1322   1.083       .  S
C1316      C1317   1.425       .  A
C1317      C1318   1.393       .  A
C1317     Br1324   1.922       .  S
C1318      C1319   1.396       .  A
C1318      H1323   1.083       .  S
C1319      C1320   1.417       .  A
C1320     Br1321   1.924   1_545  S
C1325      C1326   1.401       .  A
C1325      C1330   1.393       .  A
C1325      H1332   1.083       .  S
C1326      C1327   1.418       .  A
C1327      C1328   1.390       .  A
C1327     Br1334   1.926       .  S
C1328      C1329   1.401       .  A
C1328      H1333   1.083       .  S
C1329      C1330   1.419       .  A
C1330     Br1331   1.924       .  S
C1335      C1336   1.401   1_554  A
C1335      C1340   1.387       .  A
C1335      H1342   1.084       .  S
C1336      C1337   1.411       .  A
C1337      C1338   1.390       .  A
C1337     Br1344   1.922       .  S
C1338      C1339   1.400       .  A
C1338      H1343   1.084       .  S
C1339      C1340   1.408   1_556  A
C1340     Br1341   1.922       .  S
C1345      C1346   1.404       .  A
C1345      C1350   1.397       .  A
C1345      H1352   1.083       .  S
C1346      C1347   1.419       .  A
C1347      C1348   1.390       .  A
C1347     Br1354   1.926       .  S
C1348      C1349   1.401       .  A
C1348      H1353   1.083       .  S
C1349      C1350   1.416       .  A
C1350     Br1351   1.922       .  S
C1355      C1356   1.400       .  A
C1355      C1360   1.382       .  A
C1355      H1362   1.083       .  S
C1356      C1357   1.412       .  A
C1357      C1358   1.388       .  A
C1357     Br1364   1.921       .  S
C1358      C1359   1.402       .  A
C1358      H1363   1.084       .  S
C1359      C1360   1.418       .  A
C1360     Br1361   1.929       .  S
C1365      C1366   1.405       .  A
C1365      C1370   1.388       .  A
C1365      H1372   1.083       .  S
C1366      C1453   1.472       .  S
C1366      C1835   1.411       .  A
C1367      C1834   1.412       .  A
C1367      C1368   1.389       .  A
C1367     Br1374   1.924   1_556  S
C1368      C1837   1.405       .  A
C1368      H1373   1.084       .  S
C1369      C1836   1.406       .  A
C1369      C1370   1.414       .  A
C1370     Br1371   1.926   1_545  S
C1375      C1376   1.402       .  A
C1375      C1380   1.390       .  A
C1375      H1382   1.084   1_554  S
C1377      C1378   1.388       .  A
C1377     Br1384   1.926   1_455  S
C1378      H1383   1.083       .  S
C1379      C1380   1.415       .  A
C1380     Br1381   1.924   1_554  S
C1385      C1386   1.398       .  A
C1385      C1390   1.383       .  A
C1385      H1392   1.084       .  S
C1386      C1387   1.402       .  A
C1387      C1388   1.386       .  A
C1387     Br1394   1.921       .  S
C1388      C1389   1.401       .  A
C1388      H1393   1.084       .  S
C1389      C1390   1.409       .  A
C1390     Br1391   1.924       .  S
C1395      C1396   1.412       .  A
C1395      C1400   1.393       .  A
C1395      H1402   1.084       .  S
C1396      C1397   1.405       .  A
C1397      C1398   1.394       .  A
C1397     Br1404   1.920       .  S
C1398      C1399   1.413       .  A
C1398      H1403   1.083       .  S
C1399      C1400   1.409       .  A
C1400     Br1401   1.922       .  S
O1405     Ni1411   1.932       .  S
O1405      C1426   1.271       .  A
O1406     Ni1429   1.973       .  S
O1406      C1415   1.286       .  A
O1407     Ni1411   1.905       .  S
O1407     Ni1429   1.901       .  S
O1407     Ni1423   1.914       .  S
O1407      H1430   0.966       .  S
C1408      O1425   1.279       .  A
C1408      O1417   1.275       .  A
C1408      C1449   1.453       .  S
O1409     Ni1428   1.910       .  S
O1409      C1415   1.266       .  A
O1410     Ni1428   1.908       .  S
O1410      C1412   1.265       .  A
Ni1411     O1414   1.918       .  S
Ni1411     O1416   1.909       .  S
C1412      O1422   1.284       .  A
C1412      C1447   1.475       .  S
O1413     Ni1429   1.932       .  S
O1413      C1419   1.291       .  A
O1414      C1419   1.278       .  A
C1415      C1747   1.492       .  S
O1416      C1418   1.267       .  A
O1417     Ni1428   1.906       .  S
C1418      O1424   1.281       .  A
C1418      C1439   1.473       .  S
C1419      C1433   1.467       .  S
H1420      O1421   0.966       .  S
O1421     Ni1429   1.924       .  S
O1421     Ni1423   1.899       .  S
O1421     Ni1428   1.904       .  S
O1422     Ni1423   1.947       .  S
Ni1423     O1427   1.945       .  S
Ni1423     O1425   1.914       .  S
O1424     Ni1429   1.931       .  S
C1426      O1427   1.279       .  A
C1426      C1777   1.486       .  S
C1431      C1532   1.480       .  S
C1431      N1432   1.367       .  A
N1432      C1433   1.363       .  A
C1433      N1434   1.341       .  A
C1435      C1864   1.482       .  S
C1435      N1436   1.364       .  A
C1437      C1602   1.469       .  S
C1437      N1438   1.373       .  A
N1438      C1439   1.374       .  A
C1439      N1440   1.350       .  A
C1441      C1854   1.450       .  S
C1441      N1442   1.346   1_565  A
C1443      C1629   1.489       .  S
C1443      N1444   1.355       .  A
C1443      N1448   1.374   1_556  A
N1444      C1445   1.359   1_556  A
C1445      C1844   1.472       .  S
N1446      C1447   1.344   1_455  A
C1449      N1454   1.353   1_554  A
N1450      C1451   1.353   1_545  A
C1451      C1484   1.444       .  S
C1451      N1452   1.348   1_565  A
N1452      C1453   1.354       .  A
O1455     Ni1461   1.928       .  S
O1455      C1476   1.269       .  A
O1456     Ni1479   1.964       .  S
O1456      C1465   1.280       .  A
O1457     Ni1461   1.926       .  S
O1457     Ni1479   1.928       .  S
O1457     Ni1473   1.913       .  S
O1457      H1480   0.966       .  S
C1458      O1475   1.282       .  A
C1458      O1467   1.273       .  A
C1458      C1683   1.451       .  S
O1459     Ni1478   1.935       .  S
O1459      C1465   1.269       .  A
O1460     Ni1478   1.900       .  S
O1460      C1462   1.265       .  A
Ni1461     O1464   1.903       .  S
Ni1461     O1466   1.914       .  S
C1462      O1472   1.275       .  A
C1462      C1581   1.460       .  S
O1463     Ni1479   1.886       .  S
O1463      C1469   1.270       .  A
O1464      C1469   1.271       .  A
C1465      C1753   1.505       .  S
O1466      C1468   1.268       .  A
O1467     Ni1478   1.906       .  S
C1468      O1474   1.281       .  A
C1468      C1645   1.472       .  S
C1469      C1509   1.439       .  S
H1470      O1471   0.966       .  S
O1471     Ni1479   1.898       .  S
O1471     Ni1473   1.926       .  S
O1471     Ni1478   1.925       .  S
O1472     Ni1473   1.924       .  S
Ni1473     O1477   1.974       .  S
Ni1473     O1475   1.920       .  S
O1474     Ni1479   1.935       .  S
C1476      O1477   1.284       .  A
C1476      C1759   1.508       .  S
O1481     Ni1487   1.921       .  S
O1481      C1502   1.268       .  A
O1482     Ni1505   1.953       .  S
O1482      C1491   1.279       .  A
O1483     Ni1487   1.928       .  S
O1483     Ni1505   1.925       .  S
O1483     Ni1499   1.909       .  S
O1483      H1506   0.966       .  S
C1484      O1501   1.280       .  A
C1484      O1493   1.277       .  A
O1485     Ni1504   1.941       .  S
O1485      C1491   1.273       .  A
O1486     Ni1504   1.914       .  S
O1486      C1488   1.267       .  A
Ni1487     O1490   1.900       .  S
Ni1487     O1492   1.910       .  S
C1488      O1498   1.281       .  A
C1488      C1521   1.482       .  S
O1489     Ni1505   1.896       .  S
O1489      C1495   1.271       .  A
O1490      C1495   1.270       .  A
C1491      C1769   1.498       .  S
O1492      C1494   1.267       .  A
O1493     Ni1504   1.915       .  S
C1494      O1500   1.283       .  A
C1494      C1515   1.483       .  S
C1495      C1507   1.436       .  S
H1496      O1497   0.965       .  S
O1497     Ni1505   1.896       .  S
O1497     Ni1499   1.916       .  S
O1497     Ni1504   1.917       .  S
O1498     Ni1499   1.938       .  S
Ni1499     O1503   1.968       .  S
Ni1499     O1501   1.909       .  S
O1500     Ni1505   1.956       .  S
C1502      O1503   1.281       .  A
C1502      C1773   1.500       .  S
C1507      N1508   1.349       .  A
C1507      N1512   1.348       .  A
N1508      C1509   1.352       .  A
C1509      N1510   1.350       .  A
N1510      C1511   1.349       .  A
C1511      C1824   1.464       .  S
C1511      N1512   1.354       .  A
C1513      N1514   1.373       .  A
N1514      C1515   1.370       .  A
C1515      N1516   1.351   1_565  A
C1517      C1817   1.482       .  S
C1517      N1518   1.363       .  A
C1519      C1558   1.486       .  S
C1519      N1520   1.377   1_554  A
C1519      N1524   1.352       .  A
N1520      C1521   1.376       .  A
C1521      N1522   1.349       .  A
N1522      C1523   1.346       .  A
C1523      C1804   1.458       .  S
C1523      N1524   1.351   1_556  A
O1525     Ni1531   1.923       .  S
O1525      C1546   1.273       .  A
O1526     Ni1549   1.955       .  S
O1526      C1535   1.278       .  A
O1527     Ni1531   1.897       .  S
O1527     Ni1543   1.922       .  S
O1527      H1550   0.966       .  S
C1528      O1545   1.291       .  A
O1529     Ni1548   1.910       .  S
O1529      C1535   1.268       .  A
O1530     Ni1548   1.920       .  S
O1530      C1532   1.269       .  A
Ni1531     O1534   1.914       .  S
Ni1531     O1536   1.919       .  S
O1533     Ni1549   1.921       .  S
O1534      C1539   1.279       .  A
C1535      C1755   1.483       .  S
O1536      C1538   1.269       .  A
O1537     Ni1548   1.910       .  S
C1538      C1723   1.492       .  S
C1539      C1647   1.457       .  S
H1540      O1541   0.966       .  S
O1541     Ni1549   1.923       .  S
O1541     Ni1548   1.910       .  S
O1542     Ni1543   1.940       .  S
Ni1543     O1547   1.944       .  S
Ni1543     O1545   1.944       .  S
O1544     Ni1549   1.948   1_455  S
C1546      O1547   1.278       .  A
C1546      C1761   1.482       .  S
O1551     Ni1557   1.929       .  S
O1551      C1572   1.270       .  A
O1552     Ni1575   1.948       .  S
O1552      C1561   1.279       .  A
O1553     Ni1557   1.925       .  S
O1553     Ni1575   1.921       .  S
O1553     Ni1569   1.918       .  S
O1553      H1576   0.966       .  S
C1554      O1571   1.281       .  A
C1554      O1563   1.279       .  A
C1554      C1737   1.457       .  S
O1555     Ni1574   1.938       .  S
O1555      C1561   1.274       .  A
O1556     Ni1574   1.916       .  S
O1556      C1558   1.267       .  A
Ni1557     O1560   1.914       .  S
Ni1557     O1562   1.919       .  S
C1558      O1568   1.283       .  A
O1559     Ni1575   1.919       .  S
O1559      C1565   1.281       .  A
O1560      C1565   1.273       .  A
C1561      C1749   1.492       .  S
O1562      C1564   1.270       .  A
O1563     Ni1574   1.921       .  S
C1564      O1570   1.277       .  A
C1564      C1587   1.482       .  S
C1565      C1577   1.464       .  S
H1566      O1567   0.966       .  S
O1567     Ni1575   1.909       .  S
O1567     Ni1569   1.908       .  S
O1567     Ni1574   1.909       .  S
O1568     Ni1569   1.947       .  S
Ni1569     O1573   1.960       .  S
Ni1569     O1571   1.921       .  S
O1570     Ni1575   1.943       .  S
C1572      O1573   1.279       .  A
C1572      C1779   1.498       .  S
C1577      N1578   1.352       .  A
C1577      N1582   1.366       .  A
N1578      C1579   1.352       .  A
C1579      C1857   1.455       .  S
C1579      N1580   1.347       .  A
N1580      C1581   1.347       .  A
C1581      N1582   1.362       .  A
C1583      N1588   1.367       .  A
N1584      C1585   1.348       .  A
C1585      C1794   1.479       .  S
C1585      N1586   1.362       .  A
C1587      N1588   1.367       .  A
O1589     Ni1595   1.928       .  S
O1589      C1610   1.273       .  A
O1590     Ni1613   1.965       .  S
O1590      C1599   1.281       .  A
O1591     Ni1595   1.911       .  S
O1591     Ni1607   1.936       .  S
O1591      H1614   0.966       .  S
C1592      O1609   1.292       .  A
O1593     Ni1612   1.922       .  S
O1593      C1599   1.271       .  A
O1594     Ni1612   1.921       .  S
O1594      C1596   1.271       .  A
Ni1595     O1598   1.918       .  S
Ni1595     O1600   1.914       .  S
C1596      C1731   1.465       .  S
O1597     Ni1613   1.939       .  S
O1598      C1603   1.276       .  A
C1599      C1763   1.498       .  S
O1600      C1602   1.269       .  A
O1601     Ni1612   1.921       .  S
C1603      C1685   1.477       .  S
H1604      O1605   0.966       .  S
O1605     Ni1613   1.927       .  S
O1605     Ni1612   1.915       .  S
O1606     Ni1607   1.907       .  S
Ni1607     O1611   1.946       .  S
Ni1607     O1609   1.967       .  S
O1608     Ni1613   1.931       .  S
C1610      O1611   1.277       .  A
C1610      C1757   1.485       .  S
O1615     Ni1621   1.936       .  S
O1615      C1636   1.274       .  A
O1616     Ni1639   1.966       .  S
O1616      C1625   1.282       .  A
O1617     Ni1621   1.915       .  S
O1617     Ni1639   1.915       .  S
O1617     Ni1633   1.935       .  S
O1617      H1640   0.966       .  S
C1618      O1635   1.287       .  A
C1618      O1627   1.274       .  A
C1618      C1641   1.491       .  S
O1619     Ni1638   1.926       .  S
O1619      C1625   1.270       .  A
O1620     Ni1638   1.910       .  S
O1620      C1622   1.269       .  A
Ni1621     O1624   1.926       .  S
Ni1621     O1626   1.914       .  S
C1622      O1632   1.270       .  A
C1622      C1649   1.459       .  S
O1623     Ni1639   1.952       .  S
O1623      C1629   1.290       .  A
O1624      C1629   1.276       .  A
C1625      C1775   1.500       .  S
O1626      C1628   1.271       .  A
O1627     Ni1638   1.921       .  S
C1628      O1634   1.273       .  A
C1628      C1691   1.461       .  S
H1630      O1631   0.966       .  S
O1631     Ni1639   1.932       .  S
O1631     Ni1633   1.917       .  S
O1631     Ni1638   1.917       .  S
O1632     Ni1633   1.917       .  S
Ni1633     O1637   1.943       .  S
Ni1633     O1635   1.955       .  S
O1634     Ni1639   1.908       .  S
C1636      O1637   1.276       .  A
C1636      C1767   1.489       .  S
C1641      N1642   1.364       .  A
C1641      N1646   1.375       .  A
N1642      C1643   1.363       .  A
C1643      C1784   1.472       .  S
C1643      N1644   1.343       .  A
N1644      C1645   1.340       .  A
C1645      N1646   1.366       .  A
C1647      N1648   1.357       .  A
N1648      C1649   1.356       .  A
C1649      N1650   1.357       .  A
C1651      C1814   1.477       .  S
C1651      N1652   1.352       .  A
O1653     Ni1659   1.939       .  S
O1653      C1674   1.273       .  A
O1654     Ni1677   1.974       .  S
O1654      C1663   1.287       .  A
O1655     Ni1659   1.915       .  S
O1655     Ni1677   1.912       .  S
O1655     Ni1671   1.916       .  S
O1655      H1678   0.966       .  S
C1656      O1673   1.275       .  A
C1656      O1665   1.275       .  A
C1656      C1679   1.477       .  S
O1657     Ni1676   1.930       .  S
O1657      C1663   1.271       .  A
O1658     Ni1676   1.911       .  S
O1658      C1660   1.269       .  A
Ni1659     O1662   1.922       .  S
Ni1659     O1664   1.908       .  S
C1660      O1670   1.276       .  A
C1660      C1687   1.465       .  S
O1661     Ni1677   1.950       .  S
O1661      C1667   1.293       .  A
O1662      C1667   1.276       .  A
C1663      C1781   1.505       .  S
O1664      C1666   1.269       .  A
O1665     Ni1676   1.924       .  S
C1666      O1672   1.274       .  A
C1666      C1693   1.458       .  S
C1667      C1741   1.484   1_554  S
H1668      O1669   0.966       .  S
O1669     Ni1677   1.934       .  S
O1669     Ni1671   1.917       .  S
O1669     Ni1676   1.917       .  S
O1670     Ni1671   1.924       .  S
Ni1671     O1675   1.934       .  S
Ni1671     O1673   1.926       .  S
O1672     Ni1677   1.911       .  S
C1674      O1675   1.272       .  A
C1674      C1751   1.484       .  S
C1679      N1680   1.363       .  A
C1679      N1684   1.359       .  A
N1680      C1681   1.364       .  A
C1681      C1867   1.484       .  S
C1681      N1682   1.352       .  A
N1682      C1683   1.346       .  A
C1683      N1684   1.357       .  A
C1685      N1686   1.366       .  A
N1686      C1687   1.362       .  A
N1688      C1689   1.349       .  A
C1689      C1797   1.479       .  S
C1689      N1690   1.360       .  A
C1691      N1692   1.364       .  A
C1691      N1696   1.353       .  A
N1692      C1693   1.364   1_556  A
C1693      N1694   1.350       .  A
N1694      C1695   1.346   1_554  A
C1695      C1807   1.454       .  S
C1695      N1696   1.349       .  A
O1697     Ni1703   1.926       .  S
O1697      C1718   1.271       .  A
O1698     Ni1721   1.970       .  S
O1698      C1707   1.284       .  A
O1699     Ni1703   1.904       .  S
O1699     Ni1721   1.904       .  S
O1699     Ni1715   1.919       .  S
O1699      H1722   0.966       .  S
C1700      O1717   1.285       .  A
C1700      O1709   1.273       .  A
C1700      C1735   1.452       .  S
O1701     Ni1720   1.905       .  S
O1701      C1707   1.265       .  A
O1702     Ni1720   1.915       .  S
O1702      C1704   1.266       .  A
Ni1703     O1706   1.907       .  S
Ni1703     O1708   1.910       .  S
C1704      O1714   1.278       .  A
C1704      C1743   1.477       .  S
O1705     Ni1721   1.909       .  S
O1705      C1711   1.281       .  A
O1706      C1711   1.276       .  A
C1707      C1765   1.490       .  S
O1708      C1710   1.266       .  A
O1709     Ni1720   1.895       .  S
C1710      O1716   1.287       .  A
C1710      C1725   1.476       .  S
C1711      C1729   1.449       .  S
H1712      O1713   0.966       .  S
O1713     Ni1721   1.913       .  S
O1713     Ni1715   1.894       .  S
O1713     Ni1720   1.903       .  S
O1714     Ni1715   1.939       .  S
Ni1715     O1719   1.942       .  S
Ni1715     O1717   1.925       .  S
O1716     Ni1721   1.945       .  S
C1718      O1719   1.277       .  A
C1718      C1771   1.479       .  S
C1723      N1724   1.381       .  A
C1723      N1728   1.355       .  A
N1724      C1725   1.379       .  A
C1725      N1726   1.338       .  A
C1727      C1827   1.462       .  S
C1729      N1730   1.354       .  A
C1729      N1734   1.345       .  A
N1730      C1731   1.354       .  A
N1732      C1733   1.360       .  A
C1733      C1787   1.465       .  S
C1735      N1736   1.359       .  A
C1735      N1740   1.347       .  A
C1737      N1738   1.355   1_655  A
C1739      C1847   1.472       .  S
C1739      N1740   1.349   1_554  A
C1741      N1742   1.373       .  A
C1741      N1746   1.350       .  A
C1743      N1744   1.349   1_565  A
C1745      C1837   1.472       .  S
C1745      N1746   1.355       .  A
N1748      C1749   1.370       .  A
C1751      N1752   1.362       .  A
C1753      N1754   1.373       .  A
C1753      N1758   1.371       .  A
N1754      C1755   1.372       .  A
C1755      N1756   1.357       .  A
N1756      C1757   1.354       .  A
C1757      N1758   1.369       .  A
C1759      N1760   1.368       .  A
C1759      N1764   1.378       .  A
N1760      C1761   1.366       .  A
C1761      N1762   1.357       .  A
N1762      C1763   1.358       .  A
C1763      N1764   1.375       .  A
N1766      C1767   1.359       .  A
C1769      N1770   1.373       .  A
C1771      N1772   1.363       .  A
C1771      N1776   1.361       .  A
N1772      C1773   1.364       .  A
C1773      N1774   1.376       .  A
N1774      C1775   1.375       .  A
C1775      N1776   1.361       .  A
C1777      N1778   1.361       .  A
C1777      N1782   1.366       .  A
N1778      C1779   1.363       .  A
C1779      N1780   1.374       .  A
N1780      C1781   1.374       .  A
C1781      N1782   1.366       .  A
C1783      C1784   1.402       .  A
C1783      C1788   1.395       .  A
C1783      H1790   1.083       .  S
C1784      C1785   1.421       .  A
C1785      C1786   1.386       .  A
C1785     Br1792   1.925       .  S
C1786      C1787   1.395       .  A
C1786      H1791   1.084       .  S
C1787      C1788   1.411       .  A
C1788     Br1789   1.921       .  S
C1793      C1794   1.403       .  A
C1793      C1798   1.394       .  A
C1793      H1800   1.083       .  S
C1794      C1795   1.419       .  A
C1795      C1796   1.390       .  A
C1795     Br1802   1.926       .  S
C1796      C1797   1.401       .  A
C1796      H1801   1.083       .  S
C1797      C1798   1.417       .  A
C1798     Br1799   1.924       .  S
C1803      C1804   1.401   1_554  A
C1803      C1808   1.387       .  A
C1803      H1810   1.084       .  S
C1804      C1805   1.411       .  A
C1805      C1806   1.390       .  A
C1805     Br1812   1.922       .  S
C1806      C1807   1.400       .  A
C1806      H1811   1.084       .  S
C1807      C1808   1.407   1_556  A
C1808     Br1809   1.922       .  S
C1813      C1814   1.401       .  A
C1813      C1818   1.392       .  A
C1813      H1820   1.083       .  S
C1814      C1815   1.414       .  A
C1815      C1816   1.393       .  A
C1815     Br1822   1.924       .  S
C1816      C1817   1.403       .  A
C1816      H1821   1.083       .  S
C1817      C1818   1.419       .  A
C1818     Br1819   1.921       .  S
C1823      C1824   1.399       .  A
C1823      C1828   1.380       .  A
C1823      H1830   1.083       .  S
C1824      C1825   1.412       .  A
C1825      C1826   1.388       .  A
C1825     Br1832   1.921       .  S
C1826      C1827   1.402       .  A
C1826      H1831   1.084       .  S
C1827      C1828   1.419       .  A
C1828     Br1829   1.929       .  S
C1833      C1834   1.405       .  A
C1833      C1838   1.388       .  A
C1833      H1840   1.083       .  S
C1835      C1836   1.389       .  A
C1835     Br1842   1.923   1_556  S
C1836      H1841   1.084       .  S
C1837      C1838   1.414       .  A
C1838     Br1839   1.926       .  S
C1843      C1844   1.401       .  A
C1843      C1848   1.389       .  A
C1843      H1850   1.084   1_554  S
C1845      C1846   1.388       .  A
C1845     Br1852   1.926   1_455  S
C1846      H1851   1.083       .  S
C1847      C1848   1.416       .  A
C1848     Br1849   1.925   1_554  S
C1853      C1854   1.398       .  A
C1853      C1858   1.381       .  A
C1853      H1860   1.084       .  S
C1854      C1855   1.404       .  A
C1855      C1856   1.392       .  A
C1855     Br1862   1.921   1_565  S
C1856      C1857   1.404       .  A
C1856      H1861   1.084       .  S
C1857      C1858   1.411       .  A
C1858     Br1859   1.925       .  S
C1863      C1864   1.411       .  A
C1863      C1868   1.393       .  A
C1863      H1870   1.084       .  S
C1864      C1865   1.402       .  A
C1865      C1866   1.395       .  A
C1865     Br1872   1.920       .  S
C1866      C1867   1.415       .  A
C1866      H1871   1.083       .  S
C1867      C1868   1.410       .  A
C1868     Br1869   1.921       .  S
