geometry optimzed in LAMMPS
_audit_creation_date              2020-12-01 
_audit_creation_method            'lammps2cif' 
_symmetry_space_group_name_H-M    'P1' 
_symmetry_Int_Tables_number       1 
_symmetry_cell_setting            triclinic 
loop_ 
_symmetry_equiv_pos_as_xyz 
  x,y,z 
_cell_length_a                    23.45770798 
_cell_length_b                    24.074976604398255 
_cell_length_c                    39.03534141175885 
_cell_angle_alpha                 90.04387054709429 
_cell_angle_beta                  89.48919065678419 
_cell_angle_gamma                 90.47873189552281 
loop_ 
_atom_site_label 
_atom_site_type_symbol 
_atom_site_fract_x 
_atom_site_fract_y 
_atom_site_fract_z 
_atom_site_charge 
O1          O  0.12385765  0.04906871  0.48697355    -0.79700
O2          O  0.88560787  0.95692846  0.48195799    -0.79700
O3          O  0.07347258  0.88107435  0.47666143    -0.79700
O4          O  0.99867244  0.10091674  0.44693310    -0.79600
O5          O  0.98529009  0.90424066  0.46405219    -0.79800
O6          O  0.05256867  0.13666547  0.48748173    -0.79700
O7          O  0.92145947  0.01456657  0.44474490    -0.79700
O8          O  0.08107191  0.98838093  0.45262984    -0.79700
C9          C  0.12118766  0.02269013  0.45856480     1.10000
C10         C  0.88326587  0.97994076  0.45304789     1.10500
C11         C  0.02879624  0.87196183  0.45968423     1.10000
C12         C  0.03428131  0.13706830  0.45680675     1.09900
O13         O  0.00507364  0.10089953  0.05313157    -0.79700
O14         O  0.92999404  0.88041832  0.02331688    -0.79700
O15         O  0.11801493  0.95850730  0.01841125    -0.79700
O16         O  0.88020950  0.04740656  0.01344977    -0.79700
O17         O  0.92391065  0.98769166  0.04749133    -0.79700
O18         O  0.08152621  0.01567696  0.05538440    -0.79700
O19         O  0.95179339  0.13606316  0.01250182    -0.79600
O20         O  0.01821995  0.90446857  0.03602189    -0.79700
Co21       Co  0.06198475  0.07189824  0.52038791     1.51500
Co22       Co  0.95823232  0.94985355  0.00763341     1.51700
Co23       Co  0.04575055  0.95029053  0.49238307     1.51600
Co24       Co  0.94182564  0.07106908  0.97974489     1.51500
O25         O  0.00203571  0.02082110  0.49990229    -1.41600
C26         C  0.96976744  0.13663836  0.04321790     1.10000
C27         C  0.97451853  0.87171428  0.04031256     1.10000
C28         C  0.12008956  0.98202951  0.04722132     1.10000
C29         C  0.88353611  0.02111873  0.04180930     1.10000
C30         C  0.97304041  0.55292660  0.17788344     0.03600
C31         C  0.95718936  0.50256025  0.16227821    -0.12500
C32         C  0.95876653  0.45240986  0.18044095     0.01100
C33         C  0.97285544  0.45361426  0.21539374    -0.11100
C34         C  0.99060931  0.50325965  0.23171161     0.03600
C35         C  0.99161297  0.55266685  0.21204390    -0.10500
H36         H  0.94565462  0.50213344  0.13546612     0.09200
H37         H  0.96929262  0.41546153  0.22975058     0.06700
H38         H  0.00637131  0.59136926  0.22302814     0.06600
C39         C  0.04274099  0.45226252  0.31935756     0.03600
C40         C  0.04414287  0.50218732  0.33784402    -0.12500
C41         C  0.02647073  0.55210900  0.32288706     0.01100
C42         C  0.00686465  0.55188547  0.28896265    -0.11100
C43         C  0.00855900  0.50302021  0.26881048     0.03600
C44         C  0.02747896  0.45357917  0.28457373    -0.10500
H45         H  0.05682804  0.50191647  0.36446977     0.09200
H46         H  0.99101818  0.59028070  0.27849090     0.06700
H47         H  0.03120768  0.41575488  0.26992255     0.06600
C48         C  0.45155995  0.98385138  0.17656654     0.03600
C49         C  0.50235908  0.99398724  0.15854599    -0.12500
C50         C  0.55373397  0.00210323  0.17604800     0.01100
C51         C  0.55364586  0.00079393  0.21202191    -0.11100
C52         C  0.50287169  0.98984248  0.23075400     0.03600
C53         C  0.45244576  0.98002199  0.21231964    -0.10500
H54         H  0.50174393  0.99550799  0.13082069     0.09200
H55         H  0.59313051  0.00991102  0.22502404     0.06700
H56         H  0.41345139  0.96840425  0.22548520     0.06600
C57         C  0.44904261  0.99907606  0.32341512     0.03600
C58         C  0.45069314  0.99985171  0.28752123    -0.12500
C59         C  0.50170779  0.98957495  0.26920706     0.01100
C60         C  0.55150890  0.97979037  0.28803607    -0.11100
C61         C  0.55122035  0.98211842  0.32398890     0.03600
C62         C  0.49963745  0.99091404  0.34156547    -0.10500
H63         H  0.41203119  0.01027283  0.27422268     0.09200
H64         H  0.59079118  0.96951161  0.27494917     0.06700
H65         H  0.49892035  0.99183141  0.36931921     0.06600
C66         C  0.07394750  0.34372802  0.37698056     0.30200
C67         C  0.08911703  0.32080409  0.40876698    -0.36100
C68         C  0.07458274  0.26457338  0.41393697     0.16200
C69         C  0.04710492  0.23317782  0.38943234     0.22000
C70         C  0.03320321  0.25572706  0.35741993    -0.34200
C71         C  0.04761298  0.31184318  0.35231239     0.16100
O72         O  0.07786497  0.39664096  0.36815493    -0.26200
C73         C  0.05422226  0.39881623  0.33721164     0.05900
C74         C  0.03496589  0.34689637  0.32609447    -0.31100
O75         O  0.03182268  0.18359137  0.40082954    -0.22900
C76         C  0.05000952  0.18268059  0.43305020    -0.02900
C77         C  0.07746573  0.23188196  0.44252310    -0.17400
H78         H  0.10824909  0.34579951  0.42871176     0.20600
H79         H  0.01009463  0.23193622  0.33846000     0.19000
H80         H  0.01126328  0.33689011  0.30322008     0.18900
H81         H  0.09343533  0.24330566  0.46750695     0.14800
C82         C  0.00448729  0.68111911  0.36372819     0.30200
C83         C  0.97511016  0.72978608  0.37288656    -0.36100
C84         C  0.00145169  0.76396552  0.39747640     0.16200
C85         C  0.05340119  0.75125844  0.41168249     0.22000
C86         C  0.08251510  0.70263810  0.40270874    -0.34200
C87         C  0.05587912  0.66826648  0.37856641     0.16100
O88         O  0.98745998  0.64266727  0.34176041    -0.26200
C89         C  0.02814461  0.60436737  0.34298530     0.05900
C90         C  0.07170789  0.61825732  0.36548620    -0.31100
O91         O  0.06993186  0.78815102  0.43455044    -0.22900
C92         C  0.02805622  0.82511131  0.43532498    -0.02900
C93         C  0.98411885  0.81221624  0.41280153    -0.17400
H94         H  0.93424869  0.73990143  0.36195881     0.20600
H95         H  0.12279155  0.69190784  0.41418989     0.19000
H96         H  0.10962391  0.59485704  0.37128787     0.18900
H97         H  0.94485558  0.83451028  0.40881055     0.14800
C98         C  0.92965083  0.34319678  0.12240790     0.30200
C99         C  0.91471938  0.31969455  0.09066423    -0.36100
C100        C  0.92927082  0.26364961  0.08573444     0.16200
C101        C  0.95654752  0.23292261  0.11040432     0.22000
C102        C  0.97022181  0.25603443  0.14237018    -0.34200
C103        C  0.95580934  0.31197500  0.14723144     0.16100
O104        O  0.92534991  0.39607840  0.13116184    -0.26200
C105        C  0.94855077  0.39883949  0.16222308     0.05900
C106        C  0.96800063  0.34740033  0.17343842    -0.31100
O107        O  0.97191099  0.18347268  0.09918267    -0.22900
C108        C  0.95397433  0.18204029  0.06691275    -0.02900
C109        C  0.92660200  0.23068084  0.05724683    -0.17400
H110        H  0.89568430  0.34413519  0.07059489     0.20600
H111        H  0.99312066  0.23281286  0.16149198     0.19000
H112        H  0.99129668  0.33792860  0.19647835     0.18900
H113        H  0.91085334  0.24163037  0.03218589     0.14800
C114        C  0.94961278  0.74961398  0.08713887     0.30200
C115        C  0.92178675  0.69927830  0.09472452    -0.36100
C116        C  0.94561880  0.66741233  0.12088422     0.16200
C117        C  0.99310072  0.68414108  0.13888884     0.22000
C118        C  0.02113878  0.73466988  0.13120500    -0.34200
C119        C  0.99778986  0.76630159  0.10452207     0.16100
O120        O  0.93517396  0.78485706  0.06300220    -0.26200
C121        C  0.97470313  0.82473456  0.06453329     0.05900
C122        C  0.01505976  0.81537398  0.08982862    -0.31100
O123        O  0.00858407  0.64695222  0.16188951    -0.22900
C124        C  0.97093828  0.60557245  0.15814792    -0.02900
C125        C  0.93071326  0.61636377  0.13305045    -0.17400
H126        H  0.88466296  0.68540377  0.08071631     0.20600
H127        H  0.05908183  0.74787449  0.14463575     0.19000
H128        H  0.05174771  0.84074553  0.09625197     0.18900
H129        H  0.89575948  0.59013286  0.12475021     0.14800
C130        C  0.66207320  0.96131461  0.38267385     0.30200
C131        C  0.68685116  0.94701677  0.41400932    -0.36100
C132        C  0.74579197  0.95648097  0.41646938     0.16200
C133        C  0.77803502  0.97916487  0.39013774     0.22000
C134        C  0.75341695  0.99264228  0.35867495    -0.34200
C135        C  0.69467052  0.98260571  0.35609800     0.16100
O136        O  0.60740836  0.95799143  0.37509602    -0.26200
C137        C  0.60512905  0.97668710  0.34303637     0.05900
C138        C  0.65827650  0.99260870  0.33001768    -0.31100
O139        O  0.83138393  0.98869898  0.39895507    -0.22900
C140        C  0.83351859  0.97105790  0.43117934    -0.02900
C141        C  0.78165203  0.95027322  0.44334586    -0.17400
H142        H  0.66179146  0.93078920  0.43520485     0.20600
H143        H  0.77806484  0.01090339  0.33793375     0.19000
H144        H  0.66846168  0.01066682  0.30530860     0.18900
H145        H  0.77116386  0.93594878  0.46893438     0.14800
C146        C  0.22250921  0.01276308  0.39220869     0.30200
C147        C  0.24653597  0.99303596  0.36144481    -0.36100
C148        C  0.30503388  0.00395760  0.35657516     0.16200
C149        C  0.33759272  0.03187097  0.38043499     0.22000
C150        C  0.31334744  0.05261317  0.41069670    -0.34200
C151        C  0.25501599  0.04212221  0.41543082     0.16100
O152        O  0.17001172  0.00345801  0.40354045    -0.26200
C153        C  0.16900934  0.02790205  0.43417494     0.05900
C154        C  0.22057663  0.05289430  0.44269637    -0.31100
O155        O  0.39208308  0.03409999  0.37196712    -0.22900
C156        C  0.39465441  0.00799070  0.34198143    -0.02900
C157        C  0.34164868  0.98856981  0.33103812    -0.17400
H158        H  0.22187788  0.96932401  0.34316059     0.20600
H159        H  0.33861461  0.07391915  0.42976430     0.19000
H160        H  0.23203817  0.07300721  0.46650124     0.18900
H161        H  0.33196926  0.96471865  0.30827274     0.14800
C162        C  0.75301754  0.03800050  0.08390569     0.30200
C163        C  0.69500041  0.05085074  0.08598876    -0.36100
C164        C  0.66656555  0.03378684  0.11588213     0.16200
C165        C  0.69331859  0.00645798  0.14222012     0.22000
C166        C  0.75156895  0.99340281  0.14010266    -0.34200
C167        C  0.78001829  0.01003262  0.10992926     0.16100
O168        O  0.78668089  0.04749182  0.05738422    -0.26200
C169        C  0.83599134  0.02520480  0.06630291     0.05900
C170        C  0.83451449  0.00122857  0.09876741    -0.31100
O171        O  0.65773102  0.99300340  0.16734217    -0.22900
C172        C  0.60749264  0.01151499  0.15671300    -0.02900
C173        C  0.61067697  0.03738655  0.12487517    -0.17400
H174        H  0.67319778  0.07146946  0.06531713     0.20600
H175        H  0.77282632  0.97074573  0.16015638     0.19000
H176        H  0.86791980  0.97877971  0.11159754     0.18900
H177        H  0.57663785  0.05557747  0.11021570     0.14800
C178        C  0.34054019  0.96489263  0.11800098     0.30200
C179        C  0.31603416  0.95186833  0.08638179    -0.36100
C180        C  0.25749434  0.96178285  0.08374157     0.16200
C181        C  0.22531955  0.98387721  0.11014405     0.22000
C182        C  0.24974600  0.99636215  0.14192290    -0.34200
C183        C  0.30818159  0.98562777  0.14472543     0.16100
O184        O  0.39491065  0.96081444  0.12567829    -0.26200
C185        C  0.39737530  0.97842661  0.15793418     0.05900
C186        C  0.34457977  0.99431127  0.17111375    -0.31100
O187        O  0.17202532  0.99273759  0.10128144    -0.22900
C188        C  0.17001473  0.97511675  0.06900637    -0.02900
C189        C  0.22186026  0.95536681  0.05679486    -0.17400
H190        H  0.34100332  0.93589321  0.06517496     0.20600
H191        H  0.22516419  0.01396827  0.16279134     0.19000
H192        H  0.33480416  0.01177524  0.19601817     0.18900
H193        H  0.23231297  0.94087248  0.03125854     0.14800
O194        O  0.12385754  0.04906872  0.98697345    -0.79700
O195        O  0.88560791  0.95692828  0.98195801    -0.79700
O196        O  0.07347271  0.88107444  0.97666132    -0.79700
O197        O  0.99867242  0.10091661  0.94693314    -0.79600
O198        O  0.98529014  0.90424066  0.96405215    -0.79800
O199        O  0.05256855  0.13666544  0.98748176    -0.79700
O200        O  0.92145942  0.01456653  0.94474498    -0.79700
O201        O  0.08107182  0.98838102  0.95262971    -0.79700
C202        C  0.12118761  0.02269016  0.95856469     1.10000
C203        C  0.88326583  0.97994071  0.95304794     1.10500
C204        C  0.02879631  0.87196186  0.95968418     1.10000
C205        C  0.03428125  0.13706818  0.95680677     1.09900
O206        O  0.00507366  0.10089959  0.55313154    -0.79700
O207        O  0.92999374  0.88041838  0.52331682    -0.79700
O208        O  0.11801473  0.95850722  0.51841135    -0.79700
O209        O  0.88020945  0.04740669  0.51344968    -0.79700
O210        O  0.92391048  0.98769180  0.54749131    -0.79700
O211        O  0.08152612  0.01567704  0.55538445    -0.79700
O212        O  0.95179338  0.13606318  0.51250178    -0.79600
O213        O  0.01821963  0.90446862  0.53602193    -0.79700
Co214      Co  0.06198471  0.07189821  0.02038790     1.51500
Co215      Co  0.95823222  0.94985362  0.50763342     1.51700
Co216      Co  0.04575066  0.95029057  0.99238301     1.51600
Co217      Co  0.94182566  0.07106913  0.47974484     1.51500
O218        O  0.00203571  0.02082106  0.99990230    -1.41600
C219        C  0.96976744  0.13663841  0.54321786     1.10000
C220        C  0.97451818  0.87171433  0.54031255     1.10000
C221        C  0.12008943  0.98202954  0.54722137     1.10000
C222        C  0.88353603  0.02111896  0.54180926     1.10000
C223        C  0.97304015  0.55292663  0.67788348     0.03600
C224        C  0.95718913  0.50256027  0.66227826    -0.12500
C225        C  0.95876633  0.45240990  0.68044101     0.01100
C226        C  0.97285528  0.45361429  0.71539378    -0.11100
C227        C  0.99060912  0.50325970  0.73171165     0.03600
C228        C  0.99161277  0.55266690  0.71204393    -0.10500
H229        H  0.94565435  0.50213344  0.63546620     0.09200
H230        H  0.96929246  0.41546157  0.72975065     0.06700
H231        H  0.00637103  0.59136936  0.72302817     0.06600
C232        C  0.04274053  0.45226255  0.81935762     0.03600
C233        C  0.04414261  0.50218738  0.83784404    -0.12500
C234        C  0.02647057  0.55210906  0.82288705     0.01100
C235        C  0.00686442  0.55188553  0.78896267    -0.11100
C236        C  0.00855871  0.50302026  0.76881051     0.03600
C237        C  0.02747859  0.45357921  0.78457378    -0.10500
H238        H  0.05682787  0.50191654  0.86446977     0.09200
H239        H  0.99101803  0.59028078  0.77849090     0.06700
H240        H  0.03120743  0.41575491  0.76992260     0.06600
C241        C  0.45155985  0.98385214  0.67656650     0.03600
C242        C  0.50235897  0.99398812  0.65854596    -0.12500
C243        C  0.55373391  0.00210373  0.67604797     0.01100
C244        C  0.55364590  0.00079400  0.71202186    -0.11100
C245        C  0.50287171  0.98984252  0.73075394     0.03600
C246        C  0.45244573  0.98002242  0.71231957    -0.10500
H247        H  0.50174379  0.99550915  0.63082068     0.09200
H248        H  0.59313061  0.00991082  0.72502398     0.06700
H249        H  0.41345131  0.96840460  0.72548512     0.06600
C250        C  0.44904284  0.99907559  0.82341509     0.03600
C251        C  0.45069328  0.99985136  0.78752120    -0.12500
C252        C  0.50170791  0.98957463  0.76920699     0.01100
C253        C  0.55150904  0.97978993  0.78803594    -0.11100
C254        C  0.55122055  0.98211771  0.82398878     0.03600
C255        C  0.49963767  0.99091331  0.84156537    -0.10500
H256        H  0.41203138  0.01027257  0.77422272     0.09200
H257        H  0.59079131  0.96951129  0.77494896     0.06700
H258        H  0.49892062  0.99183052  0.86931912     0.06600
C259        C  0.07394722  0.34372800  0.87698059     0.30200
C260        C  0.08911667  0.32080407  0.90876702    -0.36100
C261        C  0.07458235  0.26457339  0.91393706     0.16200
C262        C  0.04710464  0.23317779  0.88943240     0.22000
C263        C  0.03320287  0.25572704  0.85742000    -0.34200
C264        C  0.04761267  0.31184315  0.85231241     0.16100
O265        O  0.07786451  0.39664097  0.86815499    -0.26200
C266        C  0.05422171  0.39881625  0.83721171     0.05900
C267        C  0.03496544  0.34689637  0.82609454    -0.31100
O268        O  0.03182261  0.18359125  0.90082955    -0.22900
C269        C  0.05000941  0.18268048  0.93305023    -0.02900
C270        C  0.07746539  0.23188192  0.94252316    -0.17400
H271        H  0.10824877  0.34579951  0.92871183     0.20600
H272        H  0.01009415  0.23193624  0.83846011     0.19000
H273        H  0.01126272  0.33689011  0.80322014     0.18900
H274        H  0.09343507  0.24330560  0.96750704     0.14800
C275        C  0.00448721  0.68111915  0.86372818     0.30200
C276        C  0.97511018  0.72978619  0.87288652    -0.36100
C277        C  0.00145182  0.76396561  0.89747633     0.16200
C278        C  0.05340130  0.75125851  0.91168241     0.22000
C279        C  0.08251509  0.70263807  0.90270870    -0.34200
C280        C  0.05587902  0.66826648  0.87856640     0.16100
O281        O  0.98745986  0.64266733  0.84176041    -0.26200
C282        C  0.02814447  0.60436741  0.84298529     0.05900
C283        C  0.07170774  0.61825732  0.86548619    -0.31100
O284        O  0.06993199  0.78815106  0.93455037    -0.22900
C285        C  0.02805634  0.82511133  0.93532494    -0.02900
C286        C  0.98411897  0.81221631  0.91280149    -0.17400
H287        H  0.93424873  0.73990161  0.86195877     0.20600
H288        H  0.12279151  0.69190772  0.91418987     0.19000
H289        H  0.10962377  0.59485704  0.87128785     0.18900
H290        H  0.94485570  0.83451032  0.90881056     0.14800
C291        C  0.92965077  0.34319694  0.62240786     0.30200
C292        C  0.91471945  0.31969473  0.59066417    -0.36100
C293        C  0.92927073  0.26364972  0.58573441     0.16200
C294        C  0.95654736  0.23292269  0.61040431     0.22000
C295        C  0.97022160  0.25603454  0.64237017    -0.34200
C296        C  0.95580914  0.31197510  0.64723143     0.16100
O297        O  0.92534979  0.39607854  0.63116185    -0.26200
C298        C  0.94855050  0.39883956  0.66222312     0.05900
C299        C  0.96800029  0.34740038  0.67343847    -0.31100
O300        O  0.97191082  0.18347275  0.59918267    -0.22900
C301        C  0.95397423  0.18204034  0.56691273    -0.02900
C302        C  0.92660191  0.23068091  0.55724681    -0.17400
H303        H  0.89568450  0.34413542  0.57059479     0.20600
H304        H  0.99312035  0.23281296  0.66149204     0.19000
H305        H  0.99129620  0.33792861  0.69647843     0.18900
H306        H  0.91085338  0.24163049  0.53218585     0.14800
C307        C  0.94961262  0.74961398  0.58713884     0.30200
C308        C  0.92178661  0.69927825  0.59472442    -0.36100
C309        C  0.94561853  0.66741232  0.62088419     0.16200
C310        C  0.99310033  0.68414113  0.63888889     0.22000
C311        C  0.02113840  0.73466994  0.63120508    -0.34200
C312        C  0.99778959  0.76630168  0.60452211     0.16100
O313        O  0.93517373  0.78485705  0.56300218    -0.26200
C314        C  0.97470277  0.82473466  0.56453334     0.05900
C315        C  0.01505936  0.81537418  0.58982871    -0.31100
O316        O  0.00858359  0.64695228  0.66188959    -0.22900
C317        C  0.97093788  0.60557247  0.65814795    -0.02900
C318        C  0.93071293  0.61636371  0.63305039    -0.17400
H319        H  0.88466295  0.68540370  0.58071618     0.20600
H320        H  0.05908140  0.74787458  0.64463593     0.19000
H321        H  0.05174717  0.84074592  0.59625206     0.18900
H322        H  0.89575931  0.59013272  0.62475007     0.14800
C323        C  0.66207336  0.96131393  0.88267377     0.30200
C324        C  0.68685127  0.94701629  0.91400929    -0.36100
C325        C  0.74579206  0.95648058  0.91646938     0.16200
C326        C  0.77803511  0.97916440  0.89013772     0.22000
C327        C  0.75341712  0.99264157  0.85867486    -0.34200
C328        C  0.69467070  0.98260485  0.85609787     0.16100
O329        O  0.60740851  0.95799090  0.87509596    -0.26200
C330        C  0.60512923  0.97668640  0.84303626     0.05900
C331        C  0.65827669  0.99260786  0.83001754    -0.31100
O332        O  0.83138396  0.98869871  0.89895508    -0.22900
C333        C  0.83351855  0.97105783  0.93117941    -0.02900
C334        C  0.78165204  0.95027307  0.94334589    -0.17400
H335        H  0.66179153  0.93078894  0.93520486     0.20600
H336        H  0.77806497  0.01090267  0.83793367     0.19000
H337        H  0.66846184  0.01066594  0.80530845     0.18900
H338        H  0.77116381  0.93594867  0.96893447     0.14800
C339        C  0.22250942  0.01276273  0.89220870     0.30200
C340        C  0.24653617  0.99303569  0.86144480    -0.36100
C341        C  0.30503410  0.00395720  0.85657516     0.16200
C342        C  0.33759299  0.03187038  0.88043505     0.22000
C343        C  0.31334775  0.05261251  0.91069680    -0.34200
C344        C  0.25501626  0.04212169  0.91543088     0.16100
O345        O  0.17001186  0.00345786  0.90354042    -0.26200
C346        C  0.16900944  0.02790190  0.93417490     0.05900
C347        C  0.22057684  0.05289389  0.94269641    -0.31100
O348        O  0.39208336  0.03409935  0.87196719    -0.22900
C349        C  0.39465465  0.00799023  0.84198144    -0.02900
C350        C  0.34164888  0.98856945  0.83103811    -0.17400
H351        H  0.22187801  0.96932390  0.84316050     0.20600
H352        H  0.33861492  0.07391837  0.92976443     0.19000
H353        H  0.23203838  0.07300666  0.96650129     0.18900
H354        H  0.33196943  0.96471838  0.80827270     0.14800
C355        C  0.75301749  0.03800101  0.58390570     0.30200
C356        C  0.69500037  0.05085120  0.58598876    -0.36100
C357        C  0.66656547  0.03378729  0.61588211     0.16200
C358        C  0.69331850  0.00645841  0.64222011     0.22000
C359        C  0.75156885  0.99340325  0.64010265    -0.34200
C360        C  0.78001824  0.01003311  0.60992928     0.16100
O361        O  0.78668086  0.04749226  0.55738422    -0.26200
C362        C  0.83599129  0.02520523  0.56630290     0.05900
C363        C  0.83451444  0.00122903  0.59876741    -0.31100
O364        O  0.65773091  0.99300385  0.66734214    -0.22900
C365        C  0.60749256  0.01151547  0.65671297    -0.02900
C366        C  0.61067688  0.03738706  0.62487515    -0.17400
H367        H  0.67319774  0.07146992  0.56531710     0.20600
H368        H  0.77282621  0.97074609  0.66015637     0.19000
H369        H  0.86791974  0.97878011  0.61159750     0.18900
H370        H  0.57663779  0.05557805  0.61021571     0.14800
C371        C  0.34054019  0.96489333  0.61800092     0.30200
C372        C  0.31603420  0.95186915  0.58638172    -0.36100
C373        C  0.25749434  0.96178331  0.58374152     0.16200
C374        C  0.22531944  0.98387742  0.61014406     0.22000
C375        C  0.24974588  0.99636245  0.64192289    -0.34200
C376        C  0.30818152  0.98562831  0.64472541     0.16100
O377        O  0.39491062  0.96081514  0.62567827    -0.26200
C378        C  0.39737523  0.97842730  0.65793415     0.05900
C379        C  0.34457966  0.99431177  0.67111375    -0.31100
O380        O  0.17202519  0.99273762  0.60128147    -0.22900
C381        C  0.17001464  0.97511690  0.56900638    -0.02900
C382        C  0.22186024  0.95536719  0.55679482    -0.17400
H383        H  0.34100347  0.93589425  0.56517480     0.20600
H384        H  0.22516397  0.01396850  0.66279134     0.19000
H385        H  0.33480402  0.01177551  0.69601822     0.18900
H386        H  0.23231303  0.94087302  0.53125846     0.14800
loop_ 
_geom_bond_atom_site_label_1 
_geom_bond_atom_site_label_2 
_geom_bond_distance 
_geom_bond_site_symmetry_2 
_ccdc_geom_bond_type 
O1            C9   1.279       .  A
O1          Co21   2.022       .  S
O2           C10   1.259       .  A
O2         Co215   1.993       .  S
O3           C11   1.263       .  A
O3          Co23   1.894       .  S
O4           C12   1.264   1_655  A
O4         Co217   1.972       .  S
O5           C11   1.298   1_655  A
O5         Co215   2.120       .  S
O6           C12   1.276       .  A
O6          Co21   2.036       .  S
O7           C10   1.259   1_545  A
O7         Co217   1.986       .  S
O8            C9   1.270   1_565  A
O8          Co23   1.975       .  S
C9          C153   1.469       .  S
C10         C140   1.466       .  S
C11          C92   1.475       .  S
C12          C76   1.480       .  S
O13          C26   1.263   1_455  A
O13        Co214   1.972       .  S
O14          C27   1.261       .  A
O14         Co22   1.893       .  S
O15          C28   1.260       .  A
O15        Co216   1.992   1_554  S
O16          C29   1.279       .  A
O16         Co24   2.024   1_554  S
O17          C29   1.269   1_565  A
O17         Co22   1.971       .  S
O18          C28   1.258   1_545  A
O18        Co214   1.983       .  S
O19          C26   1.275       .  A
O19         Co24   2.033   1_554  S
O20          C27   1.298   1_455  A
O20        Co216   2.123   1_554  S
Co21        O206   1.972       .  S
Co21        O211   1.983       .  S
Co21         O25   2.029       .  S
Co22        O195   1.993   1_554  S
Co22        O198   2.120   1_554  S
Co22        O218   2.008   1_664  S
Co23        O208   1.992       .  S
Co23        O213   2.123       .  S
Co23         O25   2.011   1_565  S
Co24        O197   1.972       .  S
Co24        O200   1.986       .  S
Co24        O218   2.032   1_655  S
O25        Co215   2.008   1_445  S
O25        Co217   2.032   1_455  S
C26         C108   1.479       .  S
C27         C121   1.475       .  S
C28         C188   1.464       .  S
C29         C169   1.466       .  S
C30         C124   1.485       .  S
C30          C31   1.405       .  A
C30          C35   1.407       .  A
C31          C32   1.402       .  A
C31          H36   1.083       .  S
C32         C105   1.491       .  S
C32          C33   1.407       .  A
C33          C34   1.415       .  A
C33          H37   1.079       .  S
C34          C43   1.512   1_655  S
C34          C35   1.416       .  A
C35          H38   1.081   1_655  S
C39          C73   1.491       .  S
C39          C40   1.402       .  A
C39          C44   1.408       .  A
C40          C41   1.404       .  A
C40          H45   1.084       .  S
C41          C89   1.483       .  S
C41          C42   1.406       .  A
C42          C43   1.415       .  A
C42          H46   1.081   1_455  S
C43          C44   1.417       .  A
C44          H47   1.079       .  S
C48         C185   1.475       .  S
C48          C49   1.398       .  A
C48          C53   1.399       .  A
C49          C50   1.403   1_565  A
C49          H54   1.083       .  S
C50         C172   1.480       .  S
C50          C51   1.405       .  A
C51          C52   1.415   1_545  A
C51          H55   1.081       .  S
C52          C59   1.501       .  S
C52          C53   1.408       .  A
C53          H56   1.080       .  S
C57         C156   1.479   1_565  S
C57          C58   1.401       .  A
C57          C62   1.403       .  A
C58          C59   1.412       .  A
C58          H63   1.080   1_565  S
C59          C60   1.407       .  A
C60          C61   1.404       .  A
C60          H64   1.080       .  S
C61         C137   1.479       .  S
C61          C62   1.403       .  A
C62          H65   1.084       .  S
C66          C71   1.378       .  A
C66          C67   1.408       .  A
C66          O72   1.322       .  A
C67          C68   1.408       .  A
C67          H78   1.082       .  S
C68          C77   1.368       .  A
C68          C69   1.380       .  A
C69          C70   1.405       .  A
C69          O75   1.320       .  A
C70          C71   1.404       .  A
C70          H79   1.082       .  S
C71          C74   1.363       .  A
O72          C73   1.335       .  A
C73          C74   1.396       .  A
C74          H80   1.082       .  S
O75          C76   1.332       .  A
C76          C77   1.395       .  A
C77          H81   1.082       .  S
C82          C87   1.380       .  A
C82          C83   1.409   1_455  A
C82          O88   1.323   1_455  A
C83          C84   1.408   1_655  A
C83          H94   1.082       .  S
C84          C93   1.369   1_455  A
C84          C85   1.380       .  A
C85          C86   1.403       .  A
C85          O91   1.317       .  A
C86          C87   1.401       .  A
C86          H95   1.083       .  S
C87          C90   1.361       .  A
O88          C89   1.334   1_655  A
C89          C90   1.392       .  A
C90          H96   1.083       .  S
O91          C92   1.331       .  A
C92          C93   1.394   1_455  A
C93          H97   1.082       .  S
C98         C103   1.378       .  A
C98          C99   1.408       .  A
C98         O104   1.322       .  A
C99         C100   1.407       .  A
C99         H110   1.082       .  S
C100        C109   1.367       .  A
C100        C101   1.380       .  A
C101        C102   1.404       .  A
C101        O107   1.320       .  A
C102        C103   1.404       .  A
C102        H111   1.082       .  S
C103        C106   1.362       .  A
O104        C105   1.335       .  A
C105        C106   1.395       .  A
C106        H112   1.082       .  S
O107        C108   1.332       .  A
C108        C109   1.394       .  A
C109        H113   1.082       .  S
C114        C119   1.380       .  A
C114        C115   1.402       .  A
C114        O120   1.317       .  A
C115        C116   1.401       .  A
C115        H126   1.083       .  S
C116        C125   1.360       .  A
C116        C117   1.379       .  A
C117        C118   1.409   1_655  A
C117        O123   1.324   1_655  A
C118        C119   1.408   1_455  A
C118        H127   1.082       .  S
C119        C122   1.370   1_655  A
O120        C121   1.331       .  A
C121        C122   1.394   1_655  A
C122        H128   1.082       .  S
O123        C124   1.335   1_455  A
C124        C125   1.392       .  A
C125        H129   1.083       .  S
C130        C135   1.380       .  A
C130        C131   1.403       .  A
C130        O136   1.320       .  A
C131        C132   1.404       .  A
C131        H142   1.082       .  S
C132        C141   1.360       .  A
C132        C133   1.381       .  A
C133        C134   1.401       .  A
C133        O139   1.319       .  A
C134        C135   1.402       .  A
C134        H143   1.082   1_565  S
C135        C138   1.357       .  A
O136        C137   1.332       .  A
C137        C138   1.393       .  A
C138        H144   1.082   1_565  S
O139        C140   1.329       .  A
C140        C141   1.391       .  A
C141        H145   1.083       .  S
C146        C151   1.380       .  A
C146        C147   1.406   1_545  A
C146        O152   1.322       .  A
C147        C148   1.406   1_565  A
C147        H158   1.082       .  S
C148        C157   1.363   1_545  A
C148        C149   1.380       .  A
C149        C150   1.400       .  A
C149        O155   1.318       .  A
C150        C151   1.400       .  A
C150        H159   1.082       .  S
C151        C154   1.357       .  A
O152        C153   1.332       .  A
C153        C154   1.389       .  A
C154        H160   1.083       .  S
O155        C156   1.329       .  A
C156        C157   1.395   1_545  A
C157        H161   1.082       .  S
C162        C167   1.381       .  A
C162        C163   1.400       .  A
C162        O168   1.315       .  A
C163        C164   1.399       .  A
C163        H174   1.082       .  S
C164        C173   1.358       .  A
C164        C165   1.380       .  A
C165        C166   1.406   1_545  A
C165        O171   1.321   1_545  A
C166        C167   1.405   1_565  A
C166        H175   1.082       .  S
C167        C170   1.365       .  A
O168        C169   1.329       .  A
C169        C170   1.393       .  A
C170        H176   1.082   1_545  S
O171        C172   1.333   1_565  A
C172        C173   1.392       .  A
C173        H177   1.082       .  S
C178        C183   1.380       .  A
C178        C179   1.400       .  A
C178        O184   1.317       .  A
C179        C180   1.400       .  A
C179        H190   1.082       .  S
C180        C189   1.357       .  A
C180        C181   1.381       .  A
C181        C182   1.402       .  A
C181        O187   1.319       .  A
C182        C183   1.402       .  A
C182        H191   1.082   1_565  S
C183        C186   1.359       .  A
O184        C185   1.330       .  A
C185        C186   1.393       .  A
C186        H192   1.082   1_565  S
O187        C188   1.330       .  A
C188        C189   1.390       .  A
C189        H193   1.083       .  S
O194        C202   1.279       .  A
O194       Co214   2.022   1_556  S
O195        C203   1.259       .  A
O196        C204   1.263       .  A
O196       Co216   1.894       .  S
O197        C205   1.264   1_655  A
O198        C204   1.298   1_655  A
O199        C205   1.276       .  A
O199       Co214   2.036   1_556  S
O200        C203   1.259   1_545  A
O201        C202   1.270   1_565  A
O201       Co216   1.975       .  S
C202        C346   1.469       .  S
C203        C333   1.466       .  S
C204        C285   1.475       .  S
C205        C269   1.480       .  S
O206        C219   1.263   1_455  A
O207        C220   1.261       .  A
O207       Co215   1.893       .  S
O208        C221   1.260       .  A
O209        C222   1.279       .  A
O209       Co217   2.024       .  S
O210        C222   1.269   1_565  A
O210       Co215   1.971       .  S
O211        C221   1.258   1_545  A
O212        C219   1.275       .  A
O212       Co217   2.033       .  S
O213        C220   1.298   1_455  A
Co214       O218   2.029   1_554  S
Co216       O218   2.011   1_565  S
C219        C301   1.479       .  S
C220        C314   1.475       .  S
C221        C381   1.464       .  S
C222        C362   1.466       .  S
C223        C317   1.485       .  S
C223        C224   1.405       .  A
C223        C228   1.407       .  A
C224        C225   1.402       .  A
C224        H229   1.083       .  S
C225        C298   1.491       .  S
C225        C226   1.407       .  A
C226        C227   1.415       .  A
C226        H230   1.079       .  S
C227        C236   1.512   1_655  S
C227        C228   1.416       .  A
C228        H231   1.081   1_655  S
C232        C266   1.491       .  S
C232        C233   1.402       .  A
C232        C237   1.408       .  A
C233        C234   1.404       .  A
C233        H238   1.084       .  S
C234        C282   1.483       .  S
C234        C235   1.406       .  A
C235        C236   1.415       .  A
C235        H239   1.081   1_455  S
C236        C237   1.417       .  A
C237        H240   1.079       .  S
C241        C378   1.475       .  S
C241        C242   1.398       .  A
C241        C246   1.399       .  A
C242        C243   1.403   1_565  A
C242        H247   1.083       .  S
C243        C365   1.480       .  S
C243        C244   1.405       .  A
C244        C245   1.415   1_545  A
C244        H248   1.081       .  S
C245        C252   1.501       .  S
C245        C246   1.408       .  A
C246        H249   1.080       .  S
C250        C349   1.479   1_565  S
C250        C251   1.401       .  A
C250        C255   1.403       .  A
C251        C252   1.412       .  A
C251        H256   1.080   1_565  S
C252        C253   1.407       .  A
C253        C254   1.404       .  A
C253        H257   1.080       .  S
C254        C330   1.479       .  S
C254        C255   1.403       .  A
C255        H258   1.084       .  S
C259        C264   1.378       .  A
C259        C260   1.408       .  A
C259        O265   1.322       .  A
C260        C261   1.408       .  A
C260        H271   1.082       .  S
C261        C270   1.368       .  A
C261        C262   1.380       .  A
C262        C263   1.405       .  A
C262        O268   1.320       .  A
C263        C264   1.404       .  A
C263        H272   1.082       .  S
C264        C267   1.363       .  A
O265        C266   1.335       .  A
C266        C267   1.396       .  A
C267        H273   1.082       .  S
O268        C269   1.332       .  A
C269        C270   1.395       .  A
C270        H274   1.082       .  S
C275        C280   1.380       .  A
C275        C276   1.409   1_455  A
C275        O281   1.323   1_455  A
C276        C277   1.408   1_655  A
C276        H287   1.082       .  S
C277        C286   1.369   1_455  A
C277        C278   1.380       .  A
C278        C279   1.403       .  A
C278        O284   1.317       .  A
C279        C280   1.401       .  A
C279        H288   1.083       .  S
C280        C283   1.361       .  A
O281        C282   1.334   1_655  A
C282        C283   1.392       .  A
C283        H289   1.083       .  S
O284        C285   1.331       .  A
C285        C286   1.394   1_455  A
C286        H290   1.082       .  S
C291        C296   1.378       .  A
C291        C292   1.408       .  A
C291        O297   1.322       .  A
C292        C293   1.407       .  A
C292        H303   1.082       .  S
C293        C302   1.367       .  A
C293        C294   1.380       .  A
C294        C295   1.404       .  A
C294        O300   1.320       .  A
C295        C296   1.404       .  A
C295        H304   1.082       .  S
C296        C299   1.362       .  A
O297        C298   1.335       .  A
C298        C299   1.395       .  A
C299        H305   1.082       .  S
O300        C301   1.332       .  A
C301        C302   1.394       .  A
C302        H306   1.082       .  S
C307        C312   1.380       .  A
C307        C308   1.402       .  A
C307        O313   1.317       .  A
C308        C309   1.401       .  A
C308        H319   1.083       .  S
C309        C318   1.360       .  A
C309        C310   1.379       .  A
C310        C311   1.409   1_655  A
C310        O316   1.324   1_655  A
C311        C312   1.408   1_455  A
C311        H320   1.082       .  S
C312        C315   1.370   1_655  A
O313        C314   1.331       .  A
C314        C315   1.394   1_655  A
C315        H321   1.082       .  S
O316        C317   1.335   1_455  A
C317        C318   1.392       .  A
C318        H322   1.083       .  S
C323        C328   1.380       .  A
C323        C324   1.403       .  A
C323        O329   1.320       .  A
C324        C325   1.404       .  A
C324        H335   1.082       .  S
C325        C334   1.360       .  A
C325        C326   1.381       .  A
C326        C327   1.401       .  A
C326        O332   1.319       .  A
C327        C328   1.402       .  A
C327        H336   1.082   1_565  S
C328        C331   1.357       .  A
O329        C330   1.332       .  A
C330        C331   1.393       .  A
C331        H337   1.082   1_565  S
O332        C333   1.329       .  A
C333        C334   1.391       .  A
C334        H338   1.083       .  S
C339        C344   1.380       .  A
C339        C340   1.406   1_545  A
C339        O345   1.322       .  A
C340        C341   1.406   1_565  A
C340        H351   1.082       .  S
C341        C350   1.363   1_545  A
C341        C342   1.380       .  A
C342        C343   1.400       .  A
C342        O348   1.318       .  A
C343        C344   1.400       .  A
C343        H352   1.082       .  S
C344        C347   1.357       .  A
O345        C346   1.332       .  A
C346        C347   1.389       .  A
C347        H353   1.083       .  S
O348        C349   1.329       .  A
C349        C350   1.395   1_545  A
C350        H354   1.082       .  S
C355        C360   1.381       .  A
C355        C356   1.400       .  A
C355        O361   1.315       .  A
C356        C357   1.399       .  A
C356        H367   1.082       .  S
C357        C366   1.358       .  A
C357        C358   1.380       .  A
C358        C359   1.406   1_545  A
C358        O364   1.321   1_545  A
C359        C360   1.405   1_565  A
C359        H368   1.082       .  S
C360        C363   1.365       .  A
O361        C362   1.329       .  A
C362        C363   1.393       .  A
C363        H369   1.082   1_545  S
O364        C365   1.333   1_565  A
C365        C366   1.392       .  A
C366        H370   1.082       .  S
C371        C376   1.380       .  A
C371        C372   1.400       .  A
C371        O377   1.317       .  A
C372        C373   1.400       .  A
C372        H383   1.082       .  S
C373        C382   1.357       .  A
C373        C374   1.381       .  A
C374        C375   1.402       .  A
C374        O380   1.319       .  A
C375        C376   1.402       .  A
C375        H384   1.082   1_565  S
C376        C379   1.359       .  A
O377        C378   1.330       .  A
C378        C379   1.393       .  A
C379        H385   1.082   1_565  S
O380        C381   1.330       .  A
C381        C382   1.390       .  A
C382        H386   1.083       .  S
