geometry optimzed in LAMMPS
_audit_creation_date              2020-11-30 
_audit_creation_method            'lammps2cif' 
_symmetry_space_group_name_H-M    'P1' 
_symmetry_Int_Tables_number       1 
_symmetry_cell_setting            triclinic 
loop_ 
_symmetry_equiv_pos_as_xyz 
  x,y,z 
_cell_length_a                    72.29430676928907 
_cell_length_b                    71.92574509585145 
_cell_length_c                    71.92670971131655 
_cell_angle_alpha                 89.9712807739433 
_cell_angle_beta                  89.96842507215688 
_cell_angle_gamma                 89.99839291000137 
loop_ 
_atom_site_label 
_atom_site_type_symbol 
_atom_site_fract_x 
_atom_site_fract_y 
_atom_site_fract_z 
_atom_site_charge 
N1          N  0.49982609  0.85661825  0.70203976    -0.27700
N2          N  0.49869705  0.86038683  0.68412611    -0.35550
C3          C  0.49718580  0.87878216  0.68175001     0.00640
C4          C  0.49732892  0.88723715  0.69903502     0.06670
C5          C  0.49913735  0.87270913  0.71165011    -0.06430
H6          H  0.49626065  0.88543895  0.66829803     0.07340
H7          H  0.49961312  0.87370068  0.72664761     0.08540
Cu8        Cu  0.49926909  0.84060689  0.66348748     0.44170
Cu9        Cu  0.50164722  0.82936535  0.71138921     0.41990
Cu10       Cu  0.50280165  0.79258542  0.67441416     0.43880
N11         N  0.50045405  0.82014884  0.64354857    -0.35080
N12         N  0.50194253  0.80223141  0.64717481    -0.29340
C13         C  0.50247044  0.79283056  0.63094878    -0.05440
C14         C  0.50112666  0.80558230  0.61646620     0.06780
C15         C  0.49994581  0.82273108  0.62512785     0.00570
H16         H  0.50353920  0.77787550  0.62982457     0.08230
H17         H  0.49901585  0.83625604  0.61863305     0.07300
N18         N  0.50252752  0.78781952  0.70295921    -0.36530
N19         N  0.50213996  0.80083814  0.71600998    -0.28710
C20         C  0.50177000  0.79260104  0.73279821    -0.03950
C21         C  0.50193574  0.77363885  0.73014456     0.04660
C22         C  0.50241509  0.77100890  0.71117412     0.02750
H23         H  0.50130141  0.79991391  0.74593194     0.07860
H24         H  0.50256440  0.75787835  0.70384409     0.06690
N25         N  0.49929806  0.70560029  0.85344440    -0.27700
N26         N  0.49855643  0.68765355  0.85716801    -0.35550
C27         C  0.49745767  0.68519408  0.87558518     0.00640
C28         C  0.49742425  0.70245022  0.88412476     0.06670
C29         C  0.49872976  0.71514242  0.86959346    -0.06430
H30         H  0.49685063  0.67169777  0.88218389     0.07340
H31         H  0.49890508  0.73014233  0.87062627     0.08540
Cu32       Cu  0.49886746  0.66702712  0.83730544     0.44170
Cu33       Cu  0.50044590  0.71505278  0.82615087     0.41990
Cu34       Cu  0.50051092  0.67802263  0.78928985     0.43880
N35         N  0.49999485  0.64707871  0.81678981    -0.35080
N36         N  0.50065118  0.65075771  0.79883364    -0.29340
C37         C  0.50186018  0.63458640  0.78939398    -0.05440
C38         C  0.50210075  0.62007298  0.80217213     0.06780
C39         C  0.50077677  0.62866334  0.81936197     0.00570
H40         H  0.50290950  0.63353329  0.77442987     0.08230
H41         H  0.50043174  0.62212576  0.83289559     0.07300
N42         N  0.50062922  0.70655587  0.78457751    -0.36530
N43         N  0.50067741  0.71963419  0.79757717    -0.28710
C44         C  0.50082825  0.73640835  0.78929131    -0.03950
C45         C  0.50087754  0.73369996  0.77032863     0.04660
C46         C  0.50075118  0.71472563  0.76775078     0.02750
H47         H  0.50091451  0.74956908  0.79656816     0.07860
H48         H  0.50078859  0.70735837  0.75463964     0.06690
N49         N  0.80557045  0.64885609  0.49801443    -0.27700
N50         N  0.82359626  0.64614619  0.49754732    -0.35550
C51         C  0.82721276  0.62790932  0.49787608     0.00640
C52         C  0.81063570  0.61831144  0.49865986     0.06670
C53         C  0.79710418  0.63212393  0.49863804    -0.06430
H54         H  0.84104153  0.62222090  0.49752060     0.07340
H55         H  0.78228513  0.63020381  0.49930779     0.08540
Cu56       Cu  0.84277468  0.66710150  0.49705927     0.44170
Cu57       Cu  0.79494059  0.67584696  0.49814838     0.41990
Cu58       Cu  0.83079413  0.71447808  0.49862681     0.43880
N59         N  0.86210243  0.68790898  0.49773530    -0.35080
N60         N  0.85822461  0.70579082  0.49842973    -0.29340
C61         C  0.87426041  0.71541844  0.49900144    -0.05440
C62         C  0.88887373  0.70278045  0.49868392     0.06780
C63         C  0.88041560  0.68551369  0.49783584     0.00570
H64         H  0.87516204  0.73040706  0.49970360     0.08230
H65         H  0.88685698  0.67198380  0.49730754     0.07300
N66         N  0.80217898  0.71786423  0.49855659    -0.36530
N67         N  0.78958913  0.70442168  0.49837580    -0.28710
C68         C  0.77263993  0.71219988  0.49841833    -0.03950
C69         C  0.77472657  0.73126144  0.49863446     0.04660
C70         C  0.79351230  0.73441311  0.49871591     0.02750
H71         H  0.75977608  0.70451487  0.49832817     0.07860
H72         H  0.80042982  0.74775124  0.49890274     0.06690
N73         N  0.70625571  0.85439462  0.50005699    -0.27700
N74         N  0.68828353  0.85741435  0.50039667    -0.35550
C75         C  0.68499068  0.87569187  0.50050321     0.00640
C76         C  0.70172840  0.88507623  0.50018216     0.06670
C77         C  0.71502317  0.87100436  0.49992887    -0.06430
H78         H  0.67121950  0.88147906  0.50082093     0.07340
H79         H  0.72988198  0.87266915  0.49961342     0.08540
Cu80       Cu  0.66854785  0.83695376  0.50056297     0.44170
Cu81       Cu  0.71615551  0.82712545  0.49975915     0.41990
Cu82       Cu  0.67889294  0.78944483  0.49983852     0.43880
N83         N  0.64838417  0.81691459  0.50045630    -0.35080
N84         N  0.65166073  0.79890435  0.50016465    -0.29340
C85         C  0.63529548  0.78981421  0.50010396    -0.05440
C86         C  0.62108803  0.80293795  0.50036272     0.06780
C87         C  0.63014880  0.81992697  0.50058991     0.00570
H88         H  0.63389121  0.77485026  0.49985031     0.08230
H89         H  0.62417018  0.83367803  0.50083417     0.07300
N90         N  0.70746294  0.78529697  0.49958219    -0.36530
N91         N  0.72045258  0.79836328  0.49955459    -0.28710
C92         C  0.73716080  0.79008795  0.49935827    -0.03950
C93         C  0.73452959  0.77110161  0.49925670     0.04660
C94         C  0.71565681  0.76849711  0.49940380     0.02750
H95         H  0.75024257  0.79739309  0.49928631     0.07860
H96         H  0.70836078  0.75536316  0.49937515     0.06690
N97         N  0.80674510  0.50069282  0.64692493    -0.27700
N98         N  0.82476287  0.49982576  0.64422906    -0.35550
C99         C  0.82834109  0.49939034  0.62598202     0.00640
C100        C  0.81174663  0.50004180  0.61636336     0.06670
C101        C  0.79826622  0.50083796  0.63020601    -0.06430
H102        H  0.84217617  0.49876523  0.62034802     0.07340
H103        H  0.78345213  0.50161325  0.62833331     0.08540
Cu104      Cu  0.84406332  0.49984739  0.66514630     0.44170
Cu105      Cu  0.79587595  0.50186776  0.67375795     0.41990
Cu106      Cu  0.83116812  0.50454680  0.71225304     0.43880
N107        N  0.86301264  0.50098895  0.68635077    -0.35080
N108        N  0.85869463  0.50308747  0.70404390    -0.29340
C109        C  0.87443629  0.50327403  0.71413841    -0.05440
C110        C  0.88926458  0.50096326  0.70204528     0.06780
C111        C  0.88138072  0.49967896  0.68458422     0.00570
H112        H  0.87500198  0.50455488  0.72911255     0.08230
H113        H  0.88842459  0.49803380  0.67141548     0.07300
N114        N  0.80259033  0.50384043  0.71568510    -0.36530
N115        N  0.79011783  0.50280171  0.70219393    -0.28710
C116        C  0.77312738  0.50226625  0.70986491    -0.03950
C117        C  0.77507332  0.50300031  0.72892774     0.04660
C118        C  0.79381926  0.50398548  0.73218263     0.02750
H119        H  0.76034214  0.50133604  0.70211453     0.07860
H120        H  0.80063766  0.50465101  0.74555154     0.06690
N121        N  0.70610040  0.50287930  0.85171432    -0.27700
N122        N  0.68812852  0.50342885  0.85471336    -0.35550
C123        C  0.68481401  0.50355957  0.87299062     0.00640
C124        C  0.70153712  0.50304300  0.88238749     0.06670
C125        C  0.71484484  0.50264569  0.86832808    -0.06430
H126        H  0.67104036  0.50402384  0.87877258     0.07340
H127        H  0.72969617  0.50215307  0.87000257     0.08540
Cu128      Cu  0.66844029  0.50378746  0.83420176     0.44170
Cu129      Cu  0.71604631  0.50245350  0.82447224     0.41990
Cu130      Cu  0.67890460  0.50243246  0.78669158     0.43880
N131        N  0.64832613  0.50347799  0.81410620    -0.35080
N132        N  0.65163928  0.50287413  0.79610620    -0.29340
C133        C  0.63528691  0.50254840  0.78699769    -0.05440
C134        C  0.62105525  0.50292419  0.80009856     0.06780
C135        C  0.63008279  0.50357015  0.81708742     0.00570
H136        H  0.63390169  0.50193888  0.77204127     0.08230
H137        H  0.62405909  0.50409365  0.83081969     0.07300
N138        N  0.70750161  0.50228236  0.78262418    -0.36530
N139        N  0.72043913  0.50228979  0.79573547    -0.28710
C140        C  0.73718314  0.50228326  0.78752661    -0.03950
C141        C  0.73463523  0.50226761  0.76853324     0.04660
C142        C  0.71577096  0.50227175  0.76585447     0.02750
H143        H  0.75023119  0.50234765  0.79488176     0.07860
H144        H  0.70853425  0.50232558  0.75269296     0.06690
N145        N  0.84825177  0.80139792  0.00077849    -0.27700
N146        N  0.85165809  0.81940014  0.00048741    -0.35550
C147        C  0.86994775  0.82220858  0.00042585     0.00640
C148        C  0.87883610  0.80510706  0.00070601     0.06670
C149        C  0.86451279  0.79215166  0.00090797    -0.06430
H150        H  0.87610304  0.83588310  0.00015000     0.07340
H151        H  0.86575659  0.77717329  0.00116667     0.08540
Cu152      Cu  0.83158518  0.83971792  0.00025186     0.44170
Cu153      Cu  0.82115585  0.79169727  0.00097656     0.41990
Cu154      Cu  0.78406295  0.82875799  0.00102984     0.43880
N155        N  0.81114564  0.85965835  0.00045037    -0.35080
N156        N  0.79329059  0.85599239  0.00081923    -0.29340
C157        C  0.78383342  0.87216463  0.00109065    -0.05440
C158        C  0.79650640  0.88671737  0.00092225     0.06780
C159        C  0.81366284  0.87807339  0.00045480     0.00570
H160        H  0.76891953  0.87318338  0.00152031     0.08230
H161        H  0.82716282  0.88448119  0.00010168     0.07300
N162        N  0.77973771  0.80027292  0.00105616    -0.36530
N163        N  0.79269972  0.78720936  0.00103705    -0.28710
C164        C  0.78445790  0.77044279  0.00103243    -0.03950
C165        C  0.76559984  0.77318543  0.00104969     0.04660
C166        C  0.76301332  0.79212543  0.00106305     0.02750
H167        H  0.79169099  0.75727279  0.00100750     0.07860
H168        H  0.74996614  0.79949620  0.00106668     0.06690
N169        N  0.69858589  0.65046925  0.00093835    -0.27700
N170        N  0.68078778  0.64650794  0.00122172    -0.35550
C171        C  0.67859774  0.62804486  0.00110107     0.00640
C172        C  0.69591295  0.61969505  0.00065821     0.06670
C173        C  0.70832033  0.63446841  0.00060807    -0.06430
H174        H  0.66520690  0.62140722  0.00131445     0.07340
H175        H  0.72325065  0.63371934  0.00022424     0.08540
Cu176      Cu  0.65997313  0.66612382  0.00143680     0.44170
Cu177      Cu  0.70750101  0.67779471  0.00087921     0.41990
Cu178      Cu  0.67022914  0.71432791  0.00096273     0.43880
N179        N  0.63981339  0.68642021  0.00122362    -0.35080
N180        N  0.64322464  0.70442780  0.00103085    -0.29340
C181        C  0.62698752  0.71369013  0.00087258    -0.05440
C182        C  0.61264878  0.70076600  0.00095890     0.06780
C183        C  0.62150372  0.68364029  0.00118862     0.00570
H184        H  0.62578104  0.72867194  0.00067929     0.08230
H185        H  0.61529838  0.66998417  0.00132748     0.07300
N186        N  0.69859429  0.71922162  0.00095845    -0.36530
N187        N  0.71167133  0.70628418  0.00092946    -0.28710
C188        C  0.72831972  0.71458164  0.00094796    -0.03950
C189        C  0.72555889  0.73349795  0.00098888     0.04660
C190        C  0.70667447  0.73606805  0.00099495     0.02750
H191        H  0.74143286  0.70733027  0.00093352     0.07860
H192        H  0.69931805  0.74916880  0.00102500     0.06690
N193        N  0.84826129  0.00388042  0.79879841    -0.27700
N194        N  0.85171828  0.00424403  0.81679378    -0.35550
C195        C  0.87002230  0.00415906  0.81952634     0.00640
C196        C  0.87885742  0.00371284  0.80239147     0.06670
C197        C  0.86449234  0.00355852  0.78949748    -0.06430
H198        H  0.87622679  0.00442288  0.83317488     0.07340
H199        H  0.86568551  0.00320457  0.77451523     0.08540
Cu200      Cu  0.83173576  0.00471117  0.83726180     0.44170
Cu201      Cu  0.82118916  0.00383194  0.78903348     0.41990
Cu202      Cu  0.78423788  0.00448210  0.82593906     0.43880
N203        N  0.81112963  0.00447012  0.85709435    -0.35080
N204        N  0.79330504  0.00439320  0.85321868    -0.29340
C205        C  0.78363965  0.00379263  0.86925585    -0.05440
C206        C  0.79613124  0.00333580  0.88391503     0.06780
C207        C  0.81340293  0.00389359  0.87555182     0.00570
H208        H  0.76871291  0.00331788  0.87012068     0.08230
H209        H  0.82676795  0.00389726  0.88227636     0.07300
N210        N  0.77979995  0.00418466  0.79748682    -0.36530
N211        N  0.79275687  0.00393662  0.78442127    -0.28710
C212        C  0.78451237  0.00375811  0.76765925    -0.03950
C213        C  0.76564928  0.00389721  0.77041261     0.04660
C214        C  0.76307166  0.00416535  0.78935555     0.02750
H215        H  0.79174509  0.00353947  0.75448400     0.07860
H216        H  0.75002603  0.00432533  0.79673895     0.06690
N217        N  0.69870264  0.00347996  0.64769956    -0.27700
N218        N  0.68090462  0.00360971  0.64374776    -0.35550
C219        C  0.67870838  0.00352701  0.62529069     0.00640
C220        C  0.69602349  0.00334771  0.61692355     0.06670
C221        C  0.70843588  0.00331779  0.63168992    -0.06430
H222        H  0.66530967  0.00355930  0.61868203     0.07340
H223        H  0.72336932  0.00318239  0.63093087     0.08540
Cu224      Cu  0.66008198  0.00382416  0.66334211     0.42010
Cu225      Cu  0.70759573  0.00349237  0.67502902     0.41990
Cu226      Cu  0.67024488  0.00357207  0.71153309     0.43880
N227        N  0.63987239  0.00376290  0.68357773    -0.35080
N228        N  0.64324102  0.00362779  0.70159204    -0.29340
C229        C  0.62697578  0.00349078  0.71081580    -0.05440
C230        C  0.61267206  0.00351829  0.69785651     0.06780
C231        C  0.62157032  0.00372509  0.68075385     0.00570
H232        H  0.62572349  0.00330270  0.72579630     0.08230
H233        H  0.61539299  0.00387092  0.66708664     0.07300
N234        N  0.69862170  0.00357364  0.71645494    -0.36530
N235        N  0.71171586  0.00354442  0.70352638    -0.28710
C236        C  0.72835537  0.00357515  0.71183382    -0.03950
C237        C  0.72558010  0.00362541  0.73074934     0.04660
C238        C  0.70668876  0.00362479  0.73330629     0.02750
H239        H  0.74147756  0.00357273  0.70458719     0.07860
H240        H  0.69931786  0.00366926  0.74640578     0.06690
N241        N  0.99768871  0.80162770  0.85312335    -0.27700
N242        N  0.99536708  0.81947201  0.85667625    -0.35550
C243        C  0.99375009  0.82195933  0.87505327     0.00640
C244        C  0.99506866  0.80482913  0.88375480     0.06670
C245        C  0.99766647  0.79219440  0.86935384    -0.06430
H246        H  0.99202657  0.83541239  0.88152138     0.07340
H247        H  0.99922462  0.77728572  0.87053201     0.08540
Cu248      Cu  0.99479276  0.83998248  0.83669809     0.44170
Cu249      Cu  0.00037027  0.79204783  0.82594882     0.41990
Cu250      Cu  0.00112827  0.82880012  0.78903614     0.43880
N251        N  0.99562243  0.85978437  0.81602606    -0.35080
N252        N  0.99834846  0.85605844  0.79827281    -0.29340
C253        C  0.99839536  0.87217711  0.78865257    -0.05440
C254        C  0.99536326  0.88666737  0.80106481     0.06780
C255        C  0.99375450  0.87817053  0.81826221     0.00570
H256        H  0.00019356  0.87321843  0.77375642     0.08230
H257        H  0.99162747  0.88481536  0.83157700     0.07300
N258        N  0.00187352  0.80023998  0.78434898    -0.36530
N259        N  0.00158254  0.78721215  0.79740644    -0.28710
C260        C  0.00171496  0.77039937  0.78919184    -0.03950
C261        C  0.00210828  0.77301672  0.77020221     0.04660
C262        C  0.00219400  0.79199897  0.76755755     0.02750
H263        H  0.00134657  0.75726635  0.79652962     0.07860
H264        H  0.00227081  0.79932282  0.75441123     0.06690
N265        N  0.00494581  0.70433404  0.64701791    -0.27700
N266        N  0.00695831  0.68651602  0.64308222    -0.35550
C267        C  0.00806014  0.68445163  0.62457533     0.00640
C268        C  0.00669981  0.70181570  0.61624322     0.06670
C269        C  0.00466148  0.71411679  0.63100061    -0.06430
H270        H  0.00945110  0.67113399  0.61775958     0.07340
H271        H  0.00322843  0.72906292  0.63021112     0.08540
Cu272      Cu  0.00765142  0.66547494  0.66285351     0.44170
Cu273      Cu  0.00288041  0.71379026  0.67427366     0.41990
Cu274      Cu  0.00154105  0.67732426  0.71074601     0.43880
N275        N  0.00645563  0.64583596  0.68399415    -0.35080
N276        N  0.00369644  0.64997505  0.70166747    -0.29340
C277        C  0.00312149  0.63409180  0.71164228    -0.05440
C278        C  0.00584184  0.61923390  0.69963275     0.06780
C279        C  0.00786929  0.62730954  0.68223130     0.00570
H280        H  0.00116972  0.63345369  0.72654192     0.08230
H281        H  0.00993568  0.62025405  0.66911837     0.07300
N282        N  0.00134363  0.70580355  0.71577217    -0.36530
N283        N  0.00185335  0.71884632  0.70275519    -0.28710
C284        C  0.00196431  0.73564436  0.71099928    -0.03950
C285        C  0.00150591  0.73298724  0.72998655     0.04660
C286        C  0.00112581  0.71399815  0.73258815     0.02750
H287        H  0.00249146  0.74878673  0.70368795     0.07860
H288        H  0.00087096  0.70664176  0.74571425     0.06690
N289        N  0.50066276  0.15035261  0.70232715    -0.27700
N290        N  0.49863890  0.14645093  0.68451760    -0.35550
C291        C  0.49674413  0.12804661  0.68243426     0.00640
C292        C  0.49763787  0.11978654  0.69979101     0.06670
C293        C  0.50025968  0.13437212  0.71213652    -0.06430
H294        H  0.49503424  0.12121272  0.66915465     0.07340
H295        H  0.50137759  0.13350003  0.72710898     0.08540
Cu296      Cu  0.49870691  0.16609584  0.66365814     0.44170
Cu297      Cu  0.50286927  0.17758571  0.71150995     0.41990
Cu298      Cu  0.50322029  0.21415200  0.67465878     0.43880
N299        N  0.50011112  0.18669358  0.64378731    -0.35080
N300        N  0.50201919  0.20455364  0.64750025    -0.29340
C301        C  0.50259105  0.21408430  0.63135570    -0.05440
C302        C  0.50082277  0.20150128  0.61681868     0.06780
C303        C  0.49936798  0.18429148  0.62534754     0.00570
H304        H  0.50391841  0.22902724  0.63033069     0.08230
H305        H  0.49806711  0.17086192  0.61873549     0.07300
N306        N  0.50290766  0.21905606  0.70310037    -0.36530
N307        N  0.50281792  0.20606351  0.71618257    -0.28710
C308        C  0.50215757  0.21431724  0.73293918    -0.03950
C309        C  0.50182939  0.23326637  0.73020526     0.04660
C310        C  0.50231402  0.23587389  0.71123922     0.02750
H311        H  0.50177356  0.20702359  0.74609739     0.07860
H312        H  0.50209115  0.24898601  0.70385810     0.06690
N313        N  0.49782009  0.30102233  0.85321870    -0.27700
N314        N  0.49916883  0.31891029  0.85701544    -0.35550
C315        C  0.49963319  0.32127833  0.87546234     0.00640
C316        C  0.49861741  0.30401151  0.88394182     0.06670
C317        C  0.49735501  0.29141973  0.86934161    -0.06430
H318        H  0.50057899  0.33472007  0.88210971     0.07340
H319        H  0.49654964  0.27643555  0.87031959     0.08540
Cu320      Cu  0.50070313  0.33955022  0.83721478     0.44170
Cu321      Cu  0.49743221  0.29174009  0.82589870     0.41990
Cu322      Cu  0.50066878  0.32885256  0.78914567     0.43880
N323        N  0.50166984  0.35959622  0.81677779    -0.35080
N324        N  0.50160135  0.35604069  0.79879225    -0.29340
C325        C  0.50183332  0.37229372  0.78940357    -0.05440
C326        C  0.50194469  0.38674605  0.80224398     0.06780
C327        C  0.50194327  0.37800799  0.81942448     0.00570
H328        H  0.50157099  0.37346190  0.77441354     0.08230
H329        H  0.50211279  0.38442305  0.83300729     0.07300
N330        N  0.49960145  0.30036191  0.78440869    -0.36530
N331        N  0.49840218  0.28728247  0.79736549    -0.28710
C332        C  0.49827205  0.27052728  0.78907793    -0.03950
C333        C  0.49942897  0.27324869  0.77016130     0.04660
C334        C  0.50025768  0.29220527  0.76760082     0.02750
H335        H  0.49755518  0.25736370  0.79633565     0.07860
H336        H  0.50140089  0.29956487  0.75452353     0.06690
O337        O  0.49590624  0.97622762  0.69345027    -0.73350
O338        O  0.49576597  0.03133000  0.69398694    -0.74330
O339        O  0.52334602  0.00380901  0.69304137    -0.62950
O340        O  0.46877224  0.00369464  0.69423478    -0.71360
O341        O  0.46837017  0.00351806  0.72502464    -0.70910
O342        O  0.52490837  0.00340596  0.72379920    -0.62170
O343        O  0.49679613  0.03166699  0.72481636    -0.74680
O344        O  0.49664337  0.97526235  0.72426071    -0.73460
Cu345      Cu  0.49597504  0.00378681  0.69275016     1.04560
Cu346      Cu  0.49672589  0.00345960  0.72568590     1.04330
C347        C  0.49603820  0.96692510  0.70855444     0.92850
C348        C  0.49602910  0.04030260  0.70927580     0.91990
C349        C  0.53294257  0.00354266  0.70790851     0.84130
C350        C  0.45973725  0.00353093  0.70945132     0.90400
N351        N  0.99575208  0.20519469  0.85312340    -0.27700
N352        N  0.99594330  0.18724454  0.85691668    -0.35550
C353        C  0.99625111  0.18481002  0.87536570     0.00640
C354        C  0.99630610  0.20207859  0.88384351     0.06670
C355        C  0.99584446  0.21476491  0.86926593    -0.06430
H356        H  0.99645200  0.17133631  0.88204316     0.07340
H357        H  0.99609642  0.22976608  0.87028252     0.08540
Cu358      Cu  0.99641307  0.16657621  0.83714273     0.44170
Cu359      Cu  0.99646631  0.21462693  0.82579082     0.41990
Cu360      Cu  0.99973106  0.17757660  0.78918801     0.43880
N361        N  0.99695624  0.14664182  0.81663111    -0.35080
N362        N  0.99834038  0.15031071  0.79871104    -0.29340
C363        C  0.99805900  0.13413447  0.78920911    -0.05440
C364        C  0.99624222  0.11965558  0.80189510     0.06780
C365        C  0.99569258  0.12823845  0.81911201     0.00570
H366        H  0.99872704  0.13304991  0.77422447     0.08230
H367        H  0.99453301  0.12167444  0.83259226     0.07300
N368        N  0.99987565  0.20611852  0.78436196    -0.36530
N369        N  0.99859053  0.21921536  0.79727895    -0.28710
C370        C  0.99906924  0.23598042  0.78897633    -0.03950
C371        C  0.00072445  0.23325720  0.77008152     0.04660
C372        C  0.00119602  0.21427038  0.76757115     0.02750
H373        H  0.99829797  0.24914940  0.79619786     0.07860
H374        H  0.00239404  0.20688414  0.75452530     0.06690
N375        N  0.00771716  0.30159400  0.64691854    -0.27700
N376        N  0.00763404  0.31947088  0.64268526    -0.35550
C377        C  0.00691911  0.32131226  0.62412459     0.00640
C378        C  0.00652120  0.30375375  0.61613236     0.06670
C379        C  0.00717540  0.29156046  0.63107953    -0.06430
H380        H  0.00659104  0.33456149  0.61701643     0.07340
H381        H  0.00666876  0.27654045  0.63054128     0.08540
Cu382      Cu  0.00758102  0.34080654  0.66221934     0.44170
Cu383      Cu  0.00721259  0.29227642  0.67425957     0.41990
Cu384      Cu  0.00227274  0.32864760  0.71022932     0.43880
N385        N  0.00613589  0.36035322  0.68349231    -0.35080
N386        N  0.00358651  0.35602710  0.70116364    -0.29340
C387        C  0.00303704  0.37178631  0.71130694    -0.05440
C388        C  0.00561336  0.38676256  0.69943543     0.06780
C389        C  0.00749425  0.37891564  0.68192160     0.00570
H390        H  0.00142891  0.37225457  0.72625489     0.08230
H391        H  0.00961235  0.38616633  0.66891039     0.07300
N392        N  0.00319579  0.30026094  0.71550721    -0.36530
N393        N  0.00511050  0.28722157  0.70264125    -0.28710
C394        C  0.00521508  0.27045618  0.71095505    -0.03950
C395        C  0.00330244  0.27314689  0.72983795     0.04660
C396        C  0.00206193  0.29210942  0.73230948     0.02750
H397        H  0.00649967  0.25731637  0.70375385     0.07860
H398        H  0.00041502  0.29946867  0.74532159     0.06690
N399        N  0.19712685  0.00368849  0.85308073    -0.27700
N400        N  0.17922494  0.00368292  0.85653194    -0.35550
C401        C  0.17643512  0.00367535  0.87490697     0.00640
C402        C  0.19345407  0.00367671  0.88381418     0.06670
C403        C  0.20634449  0.00368504  0.86940836    -0.06430
H404        H  0.16282733  0.00366566  0.88109218     0.07340
H405        H  0.22124643  0.00368678  0.87063922     0.08540
Cu406      Cu  0.15903362  0.00367604  0.83640160     0.44170
Cu407      Cu  0.20660416  0.00369404  0.82580990     0.41990
Cu408      Cu  0.16954840  0.00365999  0.78849731     0.43880
N409        N  0.13897329  0.00364267  0.81613681    -0.35080
N410        N  0.14237013  0.00363281  0.79813141    -0.29340
C411        C  0.12608270  0.00358810  0.78892551    -0.05440
C412        C  0.11177051  0.00356992  0.80192415     0.06780
C413        C  0.12069352  0.00360497  0.81899549     0.00570
H414        H  0.12480833  0.00356307  0.77394732     0.08230
H415        H  0.11457115  0.00358707  0.83269383     0.07300
N416        N  0.19807994  0.00368287  0.78412447    -0.36530
N417        N  0.21101376  0.00369460  0.79722002    -0.28710
C418        C  0.22776040  0.00370401  0.78906756    -0.03950
C419        C  0.22523226  0.00369813  0.77009797     0.04660
C420        C  0.20636563  0.00368453  0.76736183     0.02750
H421        H  0.24079284  0.00371232  0.79645138     0.07860
H422        H  0.19915271  0.00367434  0.75418717     0.06690
N423        N  0.29544416  0.00364791  0.64825963    -0.27700
N424        N  0.31342305  0.00367193  0.64527108    -0.35550
C425        C  0.31671226  0.00364606  0.62698177     0.00640
C426        C  0.29994593  0.00365621  0.61763038     0.06670
C427        C  0.28666589  0.00362820  0.63168787    -0.06430
H428        H  0.33047716  0.00358767  0.62115369     0.07340
H429        H  0.27180229  0.00365534  0.63005479     0.08540
Cu430      Cu  0.33299439  0.00384997  0.66593341     0.44170
Cu431      Cu  0.28539618  0.00367066  0.67534957     0.41990
Cu432      Cu  0.32187126  0.00362063  0.71356858     0.43880
N433        N  0.35275572  0.00387788  0.68641675    -0.35080
N434        N  0.34921195  0.00370733  0.70438768    -0.29340
C435        C  0.36544430  0.00355657  0.71371699    -0.05440
C436        C  0.37984200  0.00360512  0.70080385     0.06780
C437        C  0.37103383  0.00387106  0.68368445     0.00570
H438        H  0.36663534  0.00331479  0.72870137     0.08230
H439        H  0.37722341  0.00407596  0.67001999     0.07300
N440        N  0.29322751  0.00364902  0.71723847    -0.36530
N441        N  0.28053710  0.00366872  0.70389499    -0.28710
C442        C  0.26364074  0.00368812  0.71174030    -0.03950
C443        C  0.26582002  0.00368217  0.73075497     0.04660
C444        C  0.28462871  0.00365796  0.73383780     0.02750
H445        H  0.25074518  0.00370486  0.70411780     0.07860
H446        H  0.29159574  0.00364741  0.74714586     0.06690
O447        O  0.96703329  0.00324406  0.77694586    -0.73350
O448        O  0.02362462  0.00329033  0.77698208    -0.74330
O449        O  0.99542473  0.97504034  0.77658601    -0.62950
O450        O  0.99538286  0.03147265  0.77702355    -0.71360
O451        O  0.99511121  0.03059351  0.80784420    -0.70910
O452        O  0.99494184  0.97539840  0.80742495    -0.62170
O453        O  0.02253357  0.00294362  0.80775699    -0.74680
O454        O  0.96796305  0.00306330  0.80772241    -0.73460
Cu455      Cu  0.99538758  0.00326767  0.77567462     1.04560
Cu456      Cu  0.99518769  0.00298872  0.80861411     1.04330
C457        C  0.95866603  0.00316207  0.79268108     0.92850
C458        C  0.03190687  0.00314862  0.79273465     0.91990
C459        C  0.99490516  0.96640431  0.79213958     0.84130
C460        C  0.99503255  0.03985938  0.79271053     0.90400
N461        N  0.20283408  0.50248284  0.64743361    -0.27700
N462        N  0.18479215  0.50130262  0.64515789    -0.35550
C463        C  0.18075625  0.50125465  0.62702517     0.00640
C464        C  0.19708094  0.50247821  0.61701841     0.06670
C465        C  0.21090145  0.50320407  0.63051485    -0.06430
H466        H  0.16680551  0.50037374  0.62174733     0.07340
H467        H  0.22565000  0.50428202  0.62827321     0.08540
Cu468      Cu  0.16610235  0.50026428  0.66649490     0.44170
Cu469      Cu  0.21400603  0.50309536  0.67411419     0.41990
Cu470      Cu  0.17882784  0.50283053  0.71348608     0.43880
N471        N  0.14707494  0.50117431  0.68753123    -0.35080
N472        N  0.15123755  0.50227597  0.70533354    -0.29340
C473        C  0.13535714  0.50338618  0.71519030    -0.05440
C474        C  0.12061906  0.50313949  0.70274702     0.06780
C475        C  0.12873088  0.50158546  0.68540772     0.00570
H476        H  0.13462577  0.50474410  0.73015012     0.08230
H477        H  0.12190967  0.50086083  0.67205597     0.07300
N478        N  0.20751558  0.50308073  0.71622577    -0.36530
N479        N  0.21983480  0.50317431  0.70252322    -0.28710
C480        C  0.23693756  0.50323837  0.70991852    -0.03950
C481        C  0.23523587  0.50318696  0.72900295     0.04660
C482        C  0.21652628  0.50308732  0.73257678     0.02750
H483        H  0.24964059  0.50328912  0.70195361     0.07860
H484        H  0.20989349  0.50299606  0.74606920     0.06690
N485        N  0.30146130  0.50330084  0.85239607    -0.27700
N486        N  0.31926561  0.50326638  0.85635017    -0.35550
C487        C  0.32149513  0.50331003  0.87480652     0.00640
C488        C  0.30421466  0.50337802  0.88323979     0.06670
C489        C  0.29176674  0.50336743  0.86846284    -0.06430
H490        H  0.33491220  0.50329959  0.88137477     0.07340
H491        H  0.27683487  0.50341565  0.86927159     0.08540
Cu492      Cu  0.34018046  0.50320595  0.83684293     0.44170
Cu493      Cu  0.29262472  0.50327193  0.82488810     0.41990
Cu494      Cu  0.33049789  0.50325825  0.78871860     0.43880
N495        N  0.36064527  0.50327667  0.81685910    -0.35080
N496        N  0.35744476  0.50331135  0.79881755    -0.29340
C497        C  0.37379543  0.50342895  0.78974266    -0.05440
C498        C  0.38798642  0.50347777  0.80283363     0.06780
C499        C  0.37892200  0.50336853  0.81985538     0.00570
H500        H  0.37518146  0.50350870  0.77477330     0.08230
H501        H  0.38496344  0.50337423  0.83358340     0.07300
N502        N  0.30217707  0.50322037  0.78346114    -0.36530
N503        N  0.28887403  0.50322716  0.79618350    -0.28710
C504        C  0.27237858  0.50320612  0.78754132    -0.03950
C505        C  0.27547708  0.50318516  0.76864213     0.04660
C506        C  0.29441102  0.50319486  0.76646199     0.02750
H507        H  0.25912532  0.50321141  0.79454148     0.07860
H508        H  0.30202499  0.50319013  0.75350352     0.06690
O509        O  0.00496440  0.47455418  0.72746357    -0.73350
O510        O  0.00446085  0.53137323  0.72716137    -0.74330
O511        O  0.97671835  0.50269769  0.72751403    -0.62950
O512        O  0.03281445  0.50330557  0.72750062    -0.71360
O513        O  0.03218991  0.50387899  0.69668586    -0.70910
O514        O  0.97742832  0.50159866  0.69669061    -0.62170
O515        O  0.00413584  0.53034390  0.69633753    -0.74680
O516        O  0.00605338  0.47525549  0.69664762    -0.73460
Cu517      Cu  0.00470404  0.50299010  0.72861262     1.04560
Cu518      Cu  0.00488139  0.50277302  0.69564654     1.04330
C519        C  0.00593120  0.46608024  0.71181245     0.92850
C520        C  0.00457739  0.53968671  0.71139308     0.91990
C521        C  0.96832342  0.50168490  0.71190230     0.84130
C522        C  0.04128347  0.50397999  0.71187823     0.90400
O523        O  0.47732091  0.50413476  0.80840445    -0.73350
O524        O  0.53199913  0.50273535  0.80745323    -0.74330
O525        O  0.50542296  0.53092127  0.80791745    -0.62950
O526        O  0.50386320  0.47599806  0.80796099    -0.71360
O527        O  0.50388303  0.47510806  0.77716309    -0.70910
O528        O  0.50447045  0.53177534  0.77713579    -0.62170
O529        O  0.53246687  0.50315283  0.77666678    -0.74680
O530        O  0.47599381  0.50370451  0.77764045    -0.73460
Cu531      Cu  0.50468373  0.50345329  0.80884617     1.04560
Cu532      Cu  0.50419916  0.50344184  0.77593149     1.04330
C533        C  0.46783351  0.50398079  0.79346448     0.92850
C534        C  0.54106779  0.50279194  0.79223936     0.91990
C535        C  0.50513668  0.54020110  0.79281286     0.84130
C536        C  0.50349926  0.46671080  0.79287261     0.90400
N537        N  0.49961877  0.70602655  0.14792538    -0.27700
N538        N  0.49857265  0.68810497  0.14419355    -0.35550
C539        C  0.49731708  0.68569360  0.12578735     0.00640
C540        C  0.49749886  0.70296439  0.11727061     0.06670
C541        C  0.49910098  0.71561154  0.13179276    -0.06430
H542        H  0.49645788  0.67222625  0.11917625     0.07340
H543        H  0.49949225  0.73060963  0.13076679     0.08540
Cu544      Cu  0.49871645  0.66749363  0.16406131     0.44170
Cu545      Cu  0.50100152  0.71531733  0.17522826     0.41990
Cu546      Cu  0.50120454  0.67813964  0.21211051     0.43880
N547        N  0.49991410  0.64742428  0.18444051    -0.35080
N548        N  0.50098819  0.65093431  0.20240120    -0.29340
C549        C  0.50215989  0.63465572  0.21167934    -0.05440
C550        C  0.50189469  0.62024249  0.19878355     0.06780
C551        C  0.50034797  0.62903310  0.18170025     0.00570
H552        H  0.50345156  0.63346265  0.22661160     0.08230
H553        H  0.49962147  0.62268787  0.16810687     0.07300
N554        N  0.50112902  0.70668289  0.21680074    -0.36530
N555        N  0.50112082  0.71977207  0.20379549    -0.28710
C556        C  0.50101512  0.73653968  0.21206282    -0.03950
C557        C  0.50094784  0.73382845  0.23101724     0.04660
C558        C  0.50103022  0.71485339  0.23362016     0.02750
H559        H  0.50097563  0.74970449  0.20477249     0.07860
H560        H  0.50102625  0.70748677  0.24674305     0.06690
N561        N  0.50006565  0.85650973  0.29988757    -0.27700
N562        N  0.49781853  0.86042335  0.31768764    -0.35550
C563        C  0.49615608  0.87886988  0.31970911     0.00640
C564        C  0.49738342  0.88711098  0.30234495     0.06670
C565        C  0.49998860  0.87248132  0.29006926    -0.06430
H566        H  0.49432952  0.88573802  0.33295674     0.07340
H567        H  0.50130008  0.87331014  0.27510813     0.08540
Cu568      Cu  0.49724732  0.84085350  0.33877011     0.44170
Cu569      Cu  0.50219530  0.82942883  0.29028029     0.41990
Cu570      Cu  0.50381599  0.79321954  0.32645926     0.43880
N571        N  0.49946568  0.81975547  0.35819643    -0.35080
N572        N  0.50281698  0.80224532  0.35378557    -0.29340
C573        C  0.50452267  0.79219620  0.36949981    -0.05440
C574        C  0.50181212  0.80398862  0.38443443     0.06780
C575        C  0.49858168  0.82130882  0.37677906     0.00570
H576        H  0.50708059  0.77738542  0.36999514     0.08230
H577        H  0.49604387  0.83415008  0.38418220     0.07300
N578        N  0.50279665  0.78805089  0.29812840    -0.36530
N579        N  0.50230328  0.80106353  0.28510112    -0.28710
C580        C  0.50156928  0.79284939  0.26832424    -0.03950
C581        C  0.50158802  0.77387723  0.27101398     0.04660
C582        C  0.50236128  0.77123872  0.28997103     0.02750
H583        H  0.50103385  0.80017134  0.25518802     0.07860
H584        H  0.50259917  0.75811087  0.29732371     0.06690
O585        O  0.49587356  0.69669399  0.97324140    -0.73350
O586        O  0.49590680  0.69691310  0.02832442    -0.74330
O587        O  0.46879278  0.69732326  0.00083733    -0.62950
O588        O  0.52333603  0.69614913  0.00075073    -0.71360
O589        O  0.52491632  0.72690540  0.00061944    -0.70910
O590        O  0.46836655  0.72811005  0.00070641    -0.62170
O591        O  0.49672145  0.72772349  0.02892260    -0.74680
O592        O  0.49666744  0.72749512  0.97237592    -0.73460
Cu593      Cu  0.49599638  0.69585343  0.00078923     1.04560
Cu594      Cu  0.49671365  0.72877658  0.00064680     1.04330
C595        C  0.49605796  0.71181606  0.96397000     0.92850
C596        C  0.49609199  0.71210850  0.03745844     0.91990
C597        C  0.45974487  0.71252841  0.00083062     0.84130
C598        C  0.53294270  0.71101216  0.00067863     0.90400
N599        N  0.14232168  0.80106883  0.00074290    -0.27700
N600        N  0.13892356  0.81907046  0.00034131    -0.35550
C601        C  0.12064123  0.82191951  0.00032918     0.00640
C602        C  0.11173331  0.80485075  0.00081310     0.06670
C603        C  0.12603488  0.79185711  0.00100937    -0.06430
H604        H  0.11448422  0.83559525  0.99992591     0.07340
H605        H  0.12474887  0.77688546  0.00145539     0.08540
Cu606      Cu  0.15898831  0.83933477  0.00010379     0.44170
Cu607      Cu  0.16949499  0.79142960  0.00099367     0.41990
Cu608      Cu  0.20655022  0.82873066  0.00106631     0.43880
N609        N  0.17919319  0.85945348  0.00043191    -0.35080
N610        N  0.19708793  0.85599696  0.00083995    -0.29340
C611        C  0.20631568  0.87232086  0.00107993    -0.05440
C612        C  0.19343815  0.88672661  0.00083397     0.06780
C613        C  0.17641803  0.87782917  0.00039645     0.00570
H614        H  0.22121378  0.87354985  0.00147188     0.08230
H615        H  0.16282342  0.88402596  0.00003856     0.07300
N616        N  0.21095977  0.80014739  0.00109108    -0.36530
N617        N  0.19802468  0.78704675  0.00106477    -0.28710
C618        C  0.20631054  0.77028759  0.00105962    -0.03950
C619        C  0.22517837  0.77303414  0.00108422     0.04660
C620        C  0.22770558  0.79200438  0.00110312     0.02750
H621        H  0.19909717  0.75710781  0.00103135     0.07860
H622        H  0.24073938  0.79939657  0.00111570     0.06690
N623        N  0.29547447  0.65130498  0.00069409    -0.27700
N624        N  0.31344449  0.64829718  0.00022028    -0.35550
C625        C  0.31670275  0.62999994  0.00018719     0.00640
C626        C  0.29992762  0.62068517  0.00073670     0.06670
C627        C  0.28667174  0.63474647  0.00098569    -0.06430
H628        H  0.33043775  0.62411472  0.99971019     0.07340
H629        H  0.27181277  0.63312009  0.00149375     0.08540
Cu630      Cu  0.33300892  0.66897295  0.99993842     0.44170
Cu631      Cu  0.28545377  0.67839350  0.00100311     0.41990
Cu632      Cu  0.32188088  0.71664109  0.00110114     0.43880
N633        N  0.35274682  0.68948208  0.00032316    -0.35080
N634        N  0.34921259  0.70744709  0.00082329    -0.29340
C635        C  0.36545172  0.71677068  0.00110707    -0.05440
C636        C  0.37984229  0.70385895  0.00079661     0.06780
C637        C  0.37102133  0.68674795  0.00026698     0.00570
H638        H  0.36665093  0.73174763  0.00157868     0.08230
H639        H  0.37719038  0.67308821  0.99983057     0.07300
N640        N  0.29323528  0.72028865  0.00112096    -0.36530
N641        N  0.28055962  0.70692506  0.00108597    -0.28710
C642        C  0.26365458  0.71474032  0.00107170    -0.03950
C643        C  0.26581053  0.73375805  0.00109977     0.04660
C644        C  0.28461670  0.73687377  0.00112973     0.02750
H645        H  0.25076689  0.70709395  0.00103240     0.07860
H646        H  0.29156837  0.75019512  0.00114516     0.06690
N647        N  0.99775643  0.85626736  0.20191922    -0.27700
N648        N  0.99548862  0.85989106  0.18407857    -0.35550
C649        C  0.99376476  0.87826976  0.18165847     0.00640
C650        C  0.99495376  0.88689342  0.19882654     0.06670
C651        C  0.99759226  0.87245016  0.21141369    -0.06430
H652        H  0.99203532  0.88479610  0.16822591     0.07340
H653        H  0.99906350  0.87356467  0.22633529     0.08540
Cu654      Cu  0.99504246  0.84001234  0.16348134     0.44170
Cu655      Cu  0.00052023  0.82907693  0.21144663     0.41990
Cu656      Cu  0.00132658  0.79235626  0.17458044     0.43880
N657        N  0.99581462  0.81938106  0.14364742    -0.35080
N658        N  0.99849492  0.80162025  0.14737084    -0.29340
C659        C  0.99846648  0.79199746  0.13127060    -0.05440
C660        C  0.99544062  0.80441601  0.11678269     0.06780
C661        C  0.99390877  0.82162320  0.12526490     0.00570
H662        H  0.00021235  0.77709792  0.13024540     0.08230
H663        H  0.99180037  0.83494441  0.11861655     0.07300
N664        N  0.00214351  0.78754238  0.20308045    -0.36530
N665        N  0.00183310  0.80051956  0.21617188    -0.28710
C666        C  0.00200240  0.79219731  0.23293879    -0.03950
C667        C  0.00244263  0.77322725  0.23020418     0.04660
C668        C  0.00251375  0.77070149  0.21121848     0.02750
H669        H  0.00161047  0.79944337  0.24611160     0.07860
H670        H  0.00259613  0.75760727  0.20382256     0.06690
N671        N  0.00492190  0.64975542  0.29856960    -0.27700
N672        N  0.00738766  0.64571893  0.31631801    -0.35550
C673        C  0.00875906  0.62719760  0.31821043     0.00640
C674        C  0.00706999  0.61900505  0.30082050     0.06670
C675        C  0.00456576  0.63381829  0.28868751    -0.06430
H676        H  0.01057173  0.62024546  0.33141865     0.07340
H677        H  0.00284440  0.63312306  0.27376688     0.08540
Cu678      Cu  0.00830031  0.66540099  0.33748528     0.44170
Cu679      Cu  0.00259264  0.67698839  0.28912921     0.41990
Cu680      Cu  0.00150915  0.71323824  0.32543079     0.43880
N681        N  0.00698867  0.68668698  0.35701562    -0.35080
N682        N  0.00389251  0.70427800  0.35274122    -0.29340
C683        C  0.00329722  0.71440437  0.36850510    -0.05440
C684        C  0.00638518  0.70260726  0.38343862     0.06780
C685        C  0.00863821  0.68515075  0.37555202     0.00570
H686        H  0.00114859  0.72927940  0.36900243     0.08230
H687        H  0.01104945  0.67217252  0.38276023     0.07300
N688        N  0.00133958  0.71841895  0.29704066    -0.36530
N689        N  0.00174216  0.70544461  0.28397662    -0.28710
C690        C  0.00194399  0.71374488  0.26719949    -0.03950
C691        C  0.00165910  0.73272650  0.26992363     0.04660
C692        C  0.00128719  0.73526530  0.28890926     0.02750
H693        H  0.00242266  0.70648195  0.25403893     0.07860
H694        H  0.00115150  0.74835951  0.29630461     0.06690
O695        O  0.96793913  0.81080684  0.00037727    -0.73350
O696        O  0.02254843  0.81088274  0.00065197    -0.74330
O697        O  0.99515821  0.81095159  0.97287857    -0.62950
O698        O  0.99486663  0.81057746  0.02805981    -0.71360
O699        O  0.99537582  0.77973959  0.02849972    -0.70910
O700        O  0.99538776  0.78012848  0.97205386    -0.62170
O701        O  0.02359105  0.78010261  0.00030555    -0.74680
O702        O  0.96704870  0.78002544  0.00030174    -0.73460
Cu703      Cu  0.99518156  0.81173494  0.00048509     1.04560
Cu704      Cu  0.99537667  0.77879187  0.00027114     1.04330
C705        C  0.95866410  0.79574259  0.00038698     0.92850
C706        C  0.03189371  0.79584306  0.00060492     0.91990
C707        C  0.99502205  0.79581122  0.96364041     0.84130
C708        C  0.99483205  0.79530863  0.03709332     0.90400
N709        N  0.20332397  0.65078237  0.49939269    -0.27700
N710        N  0.18525933  0.64858062  0.49861858    -0.35550
C711        C  0.18112651  0.63046567  0.49865790     0.00640
C712        C  0.19742870  0.62040757  0.49954593     0.06670
C713        C  0.21133177  0.63383678  0.49993903    -0.06430
H714        H  0.16714507  0.62521318  0.49800700     0.07340
H715        H  0.22608693  0.63152680  0.50072647     0.08540
Cu716      Cu  0.16686924  0.67013085  0.49791614     0.44170
Cu717      Cu  0.21441894  0.67748397  0.49977027     0.41990
Cu718      Cu  0.17917001  0.71721942  0.49987139     0.43880
N719        N  0.14778086  0.69105811  0.49839677    -0.35080
N720        N  0.15165604  0.70891991  0.49930504    -0.29340
C721        C  0.13559637  0.71854405  0.49979398    -0.05440
C722        C  0.12101034  0.70587230  0.49920214     0.06780
C723        C  0.12950696  0.68864113  0.49825190     0.00570
H724        H  0.13464853  0.73352053  0.50066418     0.08230
H725        H  0.12315646  0.67509170  0.49750806     0.07300
N726        N  0.20786498  0.71965159  0.49988466    -0.36530
N727        N  0.22013930  0.70590582  0.49984082    -0.28710
C728        C  0.23726149  0.71324888  0.49979941    -0.03950
C729        C  0.23560937  0.73232534  0.49981741     0.04660
C730        C  0.21692895  0.73596765  0.49986932     0.02750
H731        H  0.24993778  0.70525210  0.49974927     0.07860
H732        H  0.21034828  0.74947961  0.49988196     0.06690
N733        N  0.30182271  0.85559970  0.50014307    -0.27700
N734        N  0.31962413  0.85958203  0.50031365    -0.35550
C735        C  0.32181556  0.87804672  0.50038719     0.00640
C736        C  0.30451575  0.88643767  0.50025248     0.06670
C737        C  0.29209913  0.87163824  0.50010499    -0.06430
H738        H  0.33521843  0.88465319  0.50054572     0.07340
H739        H  0.27716607  0.87240912  0.49996725     0.08540
Cu740      Cu  0.34058588  0.84009796  0.50041693     0.44170
Cu741      Cu  0.29295023  0.82812934  0.49998016     0.41990
Cu742      Cu  0.33071766  0.79200313  0.49998552     0.43880
N743        N  0.36096601  0.81999896  0.50031501    -0.35080
N744        N  0.35764727  0.80197853  0.50012275    -0.29340
C745        C  0.37391333  0.79277872  0.49997699    -0.05440
C746        C  0.38819168  0.80575735  0.50006119     0.06780
C747        C  0.37926873  0.82285577  0.50030580     0.00570
H748        H  0.37517822  0.77780256  0.49973756     0.08230
H749        H  0.38542911  0.83653325  0.50048137     0.07300
N750        N  0.30246055  0.78674731  0.49989654    -0.36530
N751        N  0.28916122  0.79945953  0.49989225    -0.28710
C752        C  0.27267220  0.79080927  0.49984239    -0.03950
C753        C  0.27579769  0.77192117  0.49981304     0.04660
C754        C  0.29471754  0.76974485  0.49984985     0.02750
H755        H  0.25941620  0.79779238  0.49983895     0.07860
H756        H  0.30233713  0.75679673  0.49985274     0.06690
O757        O  0.00565402  0.69932798  0.47186647    -0.73350
O758        O  0.00521944  0.69851708  0.52688987    -0.74330
O759        O  0.97796221  0.69846804  0.49920716    -0.62950
O760        O  0.03235863  0.69966372  0.49956761    -0.71360
O761        O  0.03276121  0.73045725  0.49981988    -0.70910
O762        O  0.97638717  0.72922384  0.49984102    -0.62170
O763        O  0.00461448  0.72929228  0.52828082    -0.74680
O764        O  0.00456443  0.73014468  0.47139435    -0.73460
Cu765      Cu  0.00525098  0.69809419  0.49936354     1.04560
Cu766      Cu  0.00450889  0.73101566  0.49984732     1.04330
C767        C  0.00553764  0.71455744  0.46280603     0.92850
C768        C  0.00526263  0.71344433  0.53643750     0.91990
C769        C  0.96837710  0.71334557  0.49953630     0.84130
C770        C  0.04136833  0.71488807  0.49975152     0.90400
O771        O  0.53197406  0.80998837  0.49954774    -0.73350
O772        O  0.47737641  0.81077465  0.49939493    -0.74330
O773        O  0.50436360  0.81104840  0.52709912    -0.62950
O774        O  0.50446312  0.80953703  0.47183269    -0.71360
O775        O  0.50469174  0.77864982  0.47235838    -0.70910
O776        O  0.50413651  0.78025034  0.52861259    -0.62170
O777        O  0.47611832  0.78001091  0.50023791    -0.74680
O778        O  0.53262948  0.77921658  0.50070332    -0.73460
Cu779      Cu  0.50462892  0.81128226  0.49944383     1.04560
Cu780      Cu  0.50441076  0.77833391  0.50050836     1.04330
C781        C  0.54112981  0.79484079  0.50017198     0.92850
C782        C  0.46792702  0.79582682  0.49976261     0.91990
C783        C  0.50387026  0.79610281  0.53666739     0.84130
C784        C  0.50432330  0.79397712  0.46335242     0.90400
N785        N  0.50014484  0.15016544  0.29917437    -0.27700
N786        N  0.49955030  0.14634941  0.31710915    -0.35550
C787        C  0.49838995  0.12792298  0.31946430     0.00640
C788        C  0.49818187  0.11952427  0.30214930     0.06670
C789        C  0.49944538  0.13409751  0.28953755    -0.06430
H790        H  0.49778897  0.12121316  0.33291063     0.07340
H791        H  0.49940620  0.13315776  0.27452820     0.08540
Cu792      Cu  0.49988928  0.16612336  0.33780373     0.44170
Cu793      Cu  0.50096775  0.17739734  0.28972098     0.41990
Cu794      Cu  0.49920492  0.21418707  0.32644364     0.43880
N795        N  0.50048783  0.18685323  0.35753399    -0.35080
N796        N  0.50006306  0.20478541  0.35368146    -0.29340
C797        C  0.50109638  0.21445464  0.36971039    -0.05440
C798        C  0.50242087  0.20186284  0.38428794     0.06780
C799        C  0.50187730  0.18453028  0.37594749     0.00570
H800        H  0.50139631  0.22946247  0.37061093     0.08230
H801        H  0.50248164  0.17110071  0.38268868     0.07300
N802        N  0.49970821  0.21889666  0.29797619    -0.36530
N803        N  0.50047419  0.20586609  0.28496355    -0.28710
C804        C  0.50072534  0.21407282  0.26816473    -0.03950
C805        C  0.50009544  0.23302325  0.27080589     0.04660
C806        C  0.49946275  0.23568578  0.28975174     0.02750
H807        H  0.50129794  0.20675072  0.25504032     0.07860
H808        H  0.49888894  0.24881771  0.29705914     0.06690
N809        N  0.49881633  0.30128915  0.14786317    -0.27700
N810        N  0.49923479  0.31926981  0.14433182    -0.35550
C811        C  0.49901818  0.32198980  0.12593874     0.00640
C812        C  0.49853916  0.30484859  0.11714984     0.06670
C813        C  0.49834356  0.29195851  0.13158972    -0.06430
H814        H  0.49913554  0.33561424  0.11960771     0.07340
H815        H  0.49809488  0.27697362  0.13040842     0.08540
Cu816      Cu  0.50041095  0.33960958  0.16437857     0.44170
Cu817      Cu  0.49916440  0.29172106  0.17510176     0.41990
Cu818      Cu  0.50118291  0.32879875  0.21226481     0.43880
N819        N  0.50143641  0.35961250  0.18477013    -0.35080
N820        N  0.50166732  0.35605407  0.20275059    -0.29340
C821        C  0.50197950  0.37231615  0.21211298    -0.05440
C822        C  0.50184833  0.38676573  0.19924093     0.06780
C823        C  0.50160840  0.37801019  0.18208386     0.00570
H824        H  0.50201126  0.37348995  0.22710312     0.08230
H825        H  0.50160400  0.38438620  0.16847532     0.07300
N826        N  0.50048597  0.30023880  0.21670089    -0.36530
N827        N  0.49976614  0.28722034  0.20365345    -0.28710
C828        C  0.49950828  0.27042103  0.21186394    -0.03950
C829        C  0.50009178  0.27304950  0.23081256     0.04660
C830        C  0.50070222  0.29199183  0.23348223     0.02750
H831        H  0.49894772  0.25729821  0.20454016     0.07860
H832        H  0.50126831  0.29928682  0.24662121     0.06690
O833        O  0.49573762  0.97561880  0.30718403    -0.73350
O834        O  0.49606611  0.03063109  0.30747729    -0.74330
O835        O  0.46883778  0.00328064  0.30679249    -0.62950
O836        O  0.52338416  0.00297122  0.30795501    -0.71360
O837        O  0.52496111  0.00330998  0.27719631    -0.70910
O838        O  0.46843648  0.00332923  0.27600420    -0.62170
O839        O  0.49677115  0.03154518  0.27666617    -0.74680
O840        O  0.49677591  0.97506818  0.27636077    -0.73460
Cu841      Cu  0.49603100  0.00311792  0.30827172     1.04560
Cu842      Cu  0.49678287  0.00331754  0.27533746     1.04330
C843        C  0.49597856  0.96653744  0.29196664     0.92850
C844        C  0.49621754  0.03990932  0.29236496     0.91990
C845        C  0.45980360  0.00334468  0.29158464     0.84130
C846        C  0.53298648  0.00312475  0.29308102     0.90400
O847        O  0.49652680  0.27903821  0.97230710    -0.73350
O848        O  0.49640060  0.27962499  0.02891758    -0.74330
O849        O  0.46814716  0.27907449  0.00058045    -0.62950
O850        O  0.52468741  0.27971904  0.00066635    -0.71360
O851        O  0.52343171  0.31048865  0.00049862    -0.70910
O852        O  0.46888229  0.30985332  0.00004332    -0.62170
O853        O  0.49604069  0.31041216  0.02773855    -0.74680
O854        O  0.49659247  0.30986293  0.97279803    -0.73460
Cu855      Cu  0.49641464  0.27813719  0.00062811     1.04560
Cu856      Cu  0.49617036  0.31106143  0.00025800     1.04330
C857        C  0.49696066  0.29464181  0.96372851     0.92850
C858        C  0.49645530  0.29540202  0.03717011     0.91990
C859        C  0.45968452  0.29473088  0.00029193     0.84130
C860        C  0.53288023  0.29553307  0.00061864     0.90400
N861        N  0.20362156  0.35567860  0.49946455    -0.27700
N862        N  0.18553448  0.35779745  0.49932483    -0.35550
C863        C  0.18131403  0.37588556  0.49932929     0.00640
C864        C  0.19758587  0.38603839  0.49949215     0.06670
C865        C  0.21155965  0.37266442  0.49956517    -0.06430
H866        H  0.16728021  0.38102258  0.49922640     0.07340
H867        H  0.22632461  0.37503094  0.49971644     0.08540
Cu868      Cu  0.16721152  0.33620825  0.49924648     0.44170
Cu869      Cu  0.21481786  0.32901724  0.49954519     0.41990
Cu870      Cu  0.17960994  0.28919542  0.49950542     0.43880
N871        N  0.14816267  0.31527069  0.49938214    -0.35080
N872        N  0.15208805  0.29740071  0.49948186    -0.29340
C873        C  0.13606350  0.28771867  0.49962227    -0.05440
C874        C  0.12144190  0.30036383  0.49960807     0.06780
C875        C  0.12988610  0.31764651  0.49946526     0.00570
H876        H  0.13516862  0.27271387  0.49974729     0.08230
H877        H  0.12351321  0.33120455  0.49948565     0.07300
N878        N  0.20828707  0.28684339  0.49955166    -0.36530
N879        N  0.22055154  0.30059766  0.49956893    -0.28710
C880        C  0.23767586  0.29326002  0.49960376    -0.03950
C881        C  0.23602262  0.27418434  0.49960880     0.04660
C882        C  0.21735167  0.27053340  0.49957564     0.02750
H883        H  0.25035034  0.30125804  0.49962546     0.07860
H884        H  0.21077542  0.25701997  0.49957195     0.06690
N885        N  0.30191355  0.15076164  0.50005616    -0.27700
N886        N  0.31971054  0.14675701  0.50020434    -0.35550
C887        C  0.32188137  0.12829143  0.50027944     0.00640
C888        C  0.30457235  0.11992400  0.50015522     0.06670
C889        C  0.29217167  0.13473610  0.50002836    -0.06430
H890        H  0.33527748  0.12166851  0.50043814     0.07340
H891        H  0.27723759  0.13398274  0.49989557     0.08540
Cu892      Cu  0.34070058  0.16619835  0.50024812     0.44170
Cu893      Cu  0.29306534  0.17823570  0.49989905     0.41990
Cu894      Cu  0.33089273  0.21427620  0.49989624     0.43880
N895        N  0.36109733  0.18626701  0.50014003    -0.35080
N896        N  0.35778865  0.20428801  0.49999491    -0.29340
C897        C  0.37405056  0.21348393  0.49988110    -0.05440
C898        C  0.38832051  0.20050002  0.49994701     0.06780
C899        C  0.37939668  0.18340186  0.50012529     0.00570
H900        H  0.37531320  0.22846121  0.49971286     0.08230
H901        H  0.38554844  0.16971968  0.50022945     0.07300
N902        N  0.30267343  0.21958331  0.49981841    -0.36530
N903        N  0.28934025  0.20690949  0.49981676    -0.28710
C904        C  0.27287847  0.21561053  0.49976596    -0.03950
C905        C  0.27606982  0.23448708  0.49973395     0.04660
C906        C  0.29498896  0.23660757  0.49976837     0.02750
H907        H  0.25960052  0.20867148  0.49975774     0.07860
H908        H  0.30264902  0.24953062  0.49976154     0.06690
O909        O  0.00497081  0.27565722  0.52831304    -0.73350
O910        O  0.00573154  0.27551882  0.47132527    -0.74330
O911        O  0.03348315  0.27511959  0.50013079    -0.62950
O912        O  0.97713628  0.27571822  0.49947536    -0.71360
O913        O  0.97836041  0.30648608  0.49868516    -0.70910
O914        O  0.03269580  0.30590167  0.50077074    -0.62170
O915        O  0.00681979  0.30630474  0.47228611    -0.74680
O916        O  0.00436003  0.30644025  0.52717368    -0.73460
Cu917      Cu  0.00530129  0.27425451  0.49981837     1.04560
Cu918      Cu  0.00555624  0.30717274  0.49972889     1.04330
C919        C  0.00431946  0.29143640  0.53660038     0.92850
C920        C  0.00680409  0.29124420  0.46296794     0.91990
C921        C  0.04189009  0.29078364  0.50050323     0.84130
C922        C  0.96894984  0.29150572  0.49898508     0.90400
O923        O  0.30790308  0.97591752  0.50051194    -0.73350
O924        O  0.30790339  0.03047125  0.50052398    -0.74330
O925        O  0.30769785  0.00320925  0.52805836    -0.62950
O926        O  0.30773070  0.00326364  0.47299888    -0.71360
O927        O  0.27709302  0.00320982  0.47227681    -0.70910
O928        O  0.27706170  0.00319623  0.52879586    -0.62170
O929        O  0.27730536  0.03173692  0.50050739    -0.74680
O930        O  0.27730578  0.97464408  0.50052728    -0.73460
Cu931      Cu  0.30869445  0.00320200  0.50052871     1.04560
Cu932      Cu  0.27595685  0.00318675  0.50053226     1.04330
C933        C  0.29305104  0.96640576  0.50049330     0.92850
C934        C  0.29305001  0.03997807  0.50046960     0.91990
C935        C  0.29262215  0.00326986  0.53728844     0.84130
C936        C  0.29265929  0.00333134  0.46377927     0.90400
N937        N  0.14229146  0.20626291  0.00070630    -0.27700
N938        N  0.13890754  0.18825860  0.00037899    -0.35550
C939        C  0.12063141  0.18539390  0.00038640     0.00640
C940        C  0.11170305  0.20245551  0.00080685     0.06670
C941        C  0.12599523  0.21546235  0.00094885    -0.06430
H942        H  0.11450377  0.17170596  0.00007356     0.07340
H943        H  0.12469753  0.23043356  0.00134130     0.08540
Cu944      Cu  0.15895990  0.16798542  0.00023726     0.44170
Cu945      Cu  0.16946431  0.21590053  0.00091585     0.41990
Cu946      Cu  0.20649376  0.17853951  0.00099924     0.43880
N947        N  0.17913064  0.14783501  0.00053039    -0.35080
N948        N  0.19702834  0.15127794  0.00083567    -0.29340
C949        C  0.20624739  0.13494853  0.00100159    -0.05440
C950        C  0.19336046  0.12055051  0.00080435     0.06780
C951        C  0.17634207  0.12946134  0.00049666     0.00570
H952        H  0.22114730  0.13371198  0.00127272     0.08230
H953        H  0.16274046  0.12327938  0.00023459     0.07300
N954        N  0.21092077  0.20711727  0.00101629    -0.36530
N955        N  0.19800158  0.22023519  0.00098597    -0.28710
C956        C  0.20630941  0.23698252  0.00098280    -0.03950
C957        C  0.22517337  0.23420968  0.00101347     0.04660
C958        C  0.22767647  0.21523721  0.00103351     0.02750
H959        H  0.19911318  0.25017277  0.00095259     0.07860
H960        H  0.24070114  0.20782706  0.00105100     0.06690
N961        N  0.34917927  0.29991468  0.00084936    -0.27700
N962        N  0.35268306  0.31789067  0.00072174    -0.35550
C963        C  0.37095250  0.32066379  0.00065381     0.00640
C964        C  0.37980323  0.30356215  0.00070026     0.06670
C965        C  0.36543465  0.29061911  0.00084503    -0.06430
H966        H  0.37709446  0.33434150  0.00056232     0.07340
H967        H  0.36665725  0.27563671  0.00088716     0.08540
Cu968      Cu  0.33289504  0.33833150  0.00051300     0.44170
Cu969      Cu  0.32185753  0.29067626  0.00095187     0.41990
Cu970      Cu  0.28534284  0.32887241  0.00094575     0.43880
N971        N  0.31331615  0.35897309  0.00052397    -0.35080
N972        N  0.29534283  0.35596806  0.00076079    -0.29340
C973        C  0.28654251  0.37253095  0.00090334    -0.05440
C974        C  0.29980785  0.38658796  0.00079257     0.06780
C975        C  0.31658268  0.37726376  0.00048585     0.00570
H976        H  0.27167887  0.37416222  0.00119994     0.08230
H977        H  0.33032899  0.38312779  0.00017993     0.07300
N978        N  0.28051484  0.30033043  0.00099022    -0.36530
N979        N  0.29321359  0.28698725  0.00099254    -0.28710
C980        C  0.28462102  0.27038839  0.00100507    -0.03950
C981        C  0.26580969  0.27347548  0.00100934     0.04660
C982        C  0.26362335  0.29248857  0.00099904     0.02750
H983        H  0.29159379  0.25707723  0.00100355     0.07860
H984        H  0.25072278  0.30011489  0.00099138     0.06690
N985        N  0.14229008  0.00339118  0.20347637    -0.27700
N986        N  0.13886050  0.00304342  0.18548198    -0.35550
C987        C  0.12057546  0.00301547  0.18268247     0.00640
C988        C  0.11169524  0.00343511  0.19977578     0.06670
C989        C  0.12602045  0.00361063  0.21273201    -0.06430
H990        H  0.11440341  0.00263966  0.16901831     0.07340
H991        H  0.12476150  0.00399558  0.22770929     0.08540
Cu992      Cu  0.15886435  0.00287101  0.16513273     0.44170
Cu993      Cu  0.16947420  0.00360798  0.21304259     0.41990
Cu994      Cu  0.20642515  0.00365208  0.17562414     0.43880
N995        N  0.17903233  0.00317328  0.14495179    -0.35080
N996        N  0.19693115  0.00349297  0.14838277    -0.29340
C997        C  0.20615134  0.00369113  0.13205111    -0.05440
C998        C  0.19326822  0.00349974  0.11765897     0.06780
C999        C  0.17624670  0.00316107  0.12657671     0.00570
H1000       H  0.22105113  0.00398763  0.13081033     0.08230
H1001       H  0.16264814  0.00290661  0.12039729     0.07300
N1002       N  0.21090764  0.00366438  0.20418475    -0.36530
N1003       N  0.19800773  0.00364926  0.21732736    -0.28710
C1004       C  0.20633665  0.00363893  0.23405745    -0.03950
C1005       C  0.22519486  0.00364893  0.23124739     0.04660
C1006       C  0.22767393  0.00366463  0.21227130     0.02750
H1007       H  0.19915681  0.00361983  0.24726377     0.07860
H1008       H  0.24069070  0.00367010  0.20483536     0.06690
N1009       N  0.34927224  0.00347938  0.29665959    -0.27700
N1010       N  0.35279173  0.00318653  0.31462878    -0.35550
C1011       C  0.37106109  0.00313989  0.31736949     0.00640
C1012       C  0.37989865  0.00342769  0.30025521     0.06670
C1013       C  0.36551856  0.00362562  0.28733698    -0.06430
H1014       H  0.37720714  0.00288962  0.33103925     0.07340
H1015       H  0.36672867  0.00388333  0.27235330     0.08540
Cu1016     Cu  0.33304752  0.00293973  0.33513499     0.44170
Cu1017     Cu  0.32194705  0.00365371  0.28747729     0.41990
Cu1018     Cu  0.28550974  0.00365604  0.32577068     0.43880
N1019       N  0.31350271  0.00312433  0.35583127    -0.35080
N1020       N  0.29552992  0.00346136  0.35284835    -0.29340
C1021       C  0.28673897  0.00368715  0.36941804    -0.05440
C1022       C  0.30000688  0.00352096  0.38346515     0.06780
C1023       C  0.31677857  0.00311085  0.37412081     0.00570
H1024       H  0.27187785  0.00406239  0.37105756     0.08230
H1025       H  0.33052650  0.00276516  0.37996441     0.07300
N1026       N  0.28063062  0.00367633  0.29724482    -0.36530
N1027       N  0.29330325  0.00367616  0.28387015    -0.28710
C1028       C  0.28468070  0.00366636  0.26729406    -0.03950
C1029       C  0.26587761  0.00365978  0.27042813     0.04660
C1030       C  0.26372527  0.00366572  0.28944500     0.02750
H1031       H  0.29162970  0.00365812  0.25396348     0.07860
H1032       H  0.25083680  0.00365689  0.29710356     0.06690
N1033       N  0.99482373  0.15023494  0.20186506    -0.27700
N1034       N  0.99598787  0.14607724  0.18402242    -0.35550
C1035       C  0.99666664  0.12756006  0.18206912     0.00640
C1036       C  0.99579728  0.11953172  0.19952437     0.06670
C1037       C  0.99449392  0.13432972  0.21180798    -0.06430
H1038       H  0.99780183  0.12047492  0.16885260     0.07340
H1039       H  0.99406797  0.13362252  0.22682757     0.08540
Cu1040     Cu  0.99700858  0.16557198  0.16298315     0.44170
Cu1041     Cu  0.99545408  0.17758984  0.21104615     0.41990
Cu1042     Cu  0.00078722  0.21372296  0.17439138     0.43880
N1043       N  0.99745259  0.18643146  0.14327376    -0.35080
N1044       N  0.99914938  0.20428554  0.14716588    -0.29340
C1045       C  0.99869686  0.21406386  0.13116478    -0.05440
C1046       C  0.99638146  0.20167151  0.11656188     0.06780
C1047       C  0.99573314  0.18430502  0.12484902     0.00570
H1048       H  0.99948260  0.22905726  0.13029718     0.08230
H1049       H  0.99415875  0.17099827  0.11803848     0.07300
N1050       N  0.00047486  0.21877831  0.20283666    -0.36530
N1051       N  0.99841231  0.20591870  0.21588394    -0.28710
C1052       C  0.99862874  0.21418720  0.23265364    -0.03950
C1053       C  0.00091002  0.23302054  0.22997443     0.04660
C1054       C  0.00202421  0.23552735  0.21100863     0.02750
H1055       H  0.99715699  0.20699552  0.24579103     0.07860
H1056       H  0.00370814  0.24854578  0.20365122     0.06690
N1057       N  0.00416827  0.35594309  0.29840356    -0.27700
N1058       N  0.00763521  0.36036186  0.31589351    -0.35550
C1059       C  0.00926877  0.37893788  0.31720800     0.00640
C1060       C  0.00648127  0.38663052  0.29975008     0.06670
C1061       C  0.00319010  0.37161757  0.28817076    -0.06430
H1062       H  0.01199634  0.38633355  0.33000952     0.07340
H1063       H  0.00069562  0.37201078  0.27334657     0.08540
Cu1064     Cu  0.00912377  0.34090842  0.33733001     0.44170
Cu1065     Cu  0.00195785  0.32862314  0.28947027     0.41990
Cu1066     Cu  0.00297847  0.29252466  0.32555757     0.43880
N1067       N  0.00795297  0.31955889  0.35690823    -0.35080
N1068       N  0.00531259  0.30186395  0.35274701    -0.29340
C1069       C  0.00490619  0.29181948  0.36858067    -0.05440
C1070       C  0.00757111  0.30376597  0.38347716     0.06780
C1071       C  0.00938879  0.32123934  0.37544907     0.00570
H1072       H  0.00311037  0.27690086  0.36913985     0.08230
H1073       H  0.01138954  0.33434093  0.38253121     0.07300
N1074       N  0.00224000  0.28723659  0.29719864    -0.36530
N1075       N  0.00190188  0.30026609  0.28418671    -0.28710
C1076       C  0.00177402  0.29208501  0.26737257    -0.03950
C1077       C  0.00202485  0.27310217  0.27000612     0.04660
C1078       C  0.00231313  0.27043511  0.28898676     0.02750
H1079       H  0.00154386  0.29943717  0.25424387     0.07860
H1080       H  0.00259815  0.25729395  0.29631340     0.06690
O1081       O  0.96807381  0.00459842  0.19325401    -0.73350
O1082       O  0.02264014  0.00277858  0.19362515    -0.74330
O1083       O  0.99428777  0.97606530  0.19315252    -0.62950
O1084       O  0.99649068  0.03122549  0.19390449    -0.71360
O1085       O  0.99510319  0.03142727  0.22472680    -0.70910
O1086       O  0.99508586  0.97501139  0.22395700    -0.62170
O1087       O  0.02339073  0.00321491  0.22441032    -0.74680
O1088       O  0.96685670  0.00326014  0.22399929    -0.73460
Cu1089     Cu  0.99537248  0.00366982  0.19254947     1.04560
Cu1090     Cu  0.99509814  0.00320268  0.22548131     1.04330
C1091       C  0.95864298  0.00402581  0.20822485     0.92850
C1092       C  0.03184378  0.00305155  0.20873404     0.91990
C1093       C  0.99437027  0.96671438  0.20823484     0.84130
C1094       C  0.99616873  0.04012508  0.20923787     0.90400
O1095       O  0.18774105  0.00360396  0.97334356    -0.73350
O1096       O  0.18767957  0.00366615  0.02813383    -0.74330
O1097       O  0.18769847  0.03102750  0.00070897    -0.62950
O1098       O  0.18772953  0.97623467  0.00080047    -0.71360
O1099       O  0.21835185  0.97525997  0.00078548    -0.70910
O1100       O  0.21831969  0.03203129  0.00073925    -0.62170
O1101       O  0.21829998  0.00365782  0.02914125    -0.74680
O1102       O  0.21836246  0.00363890  0.97235839    -0.73460
Cu1103     Cu  0.18682417  0.00363119  0.00074006     1.04560
Cu1104     Cu  0.21956703  0.00364656  0.00075158     1.04330
C1105       C  0.20271599  0.00362255  0.96398572     0.92850
C1106       C  0.20263737  0.00367822  0.03750127     0.91990
C1107       C  0.20266328  0.04039272  0.00074766     0.84130
C1108       C  0.20270394  0.96688370  0.00084763     0.90400
O1109       O  0.96697685  0.22691270  0.00019999    -0.73350
O1110       O  0.02346994  0.22703082  0.00038310    -0.74330
O1111       O  0.99536601  0.22695265  0.97202966    -0.62950
O1112       O  0.99512949  0.22718668  0.02850034    -0.71360
O1113       O  0.99423849  0.19636113  0.02798732    -0.70910
O1114       O  0.99622230  0.19614654  0.97289395    -0.62170
O1115       O  0.02255749  0.19625970  0.00129806    -0.74680
O1116       O  0.96793333  0.19612386  0.99972519    -0.73460
Cu1117     Cu  0.99522679  0.22822979  0.00025523     1.04560
Cu1118     Cu  0.99524080  0.19529133  0.00045657     1.04330
C1119       C  0.95863956  0.21118204  0.00010515     0.92850
C1120       C  0.03183999  0.21133130  0.00098943     0.91990
C1121       C  0.99615734  0.21128228  0.96363567     0.84130
C1122       C  0.99435247  0.21159365  0.03705681     0.90400
N1123       N  0.20301190  0.50331457  0.35225122    -0.27700
N1124       N  0.18495178  0.50436127  0.35444053    -0.35550
C1125       C  0.18082216  0.50442809  0.37255950     0.00640
C1126       C  0.19711258  0.50338320  0.38263176     0.06670
C1127       C  0.21100251  0.50271425  0.36919482    -0.06430
H1128       H  0.16683903  0.50523697  0.37778567     0.07340
H1129       H  0.22575054  0.50180213  0.37148834     0.08540
Cu1130     Cu  0.16645561  0.50539958  0.33294381     0.44170
Cu1131     Cu  0.21431066  0.50276960  0.32564987     0.41990
Cu1132     Cu  0.17936362  0.50262819  0.28601226     0.43880
N1133       N  0.14756960  0.50467785  0.31178342    -0.35080
N1134       N  0.15178440  0.50338532  0.29400625    -0.29340
C1135       C  0.13594078  0.50235597  0.28409953    -0.05440
C1136       C  0.12115526  0.50289046  0.29648929     0.06780
C1137       C  0.12922575  0.50452726  0.31384280     0.00570
H1138       H  0.13526701  0.50087014  0.26915072     0.08230
H1139       H  0.12240016  0.50545608  0.32718647     0.07300
N1140       N  0.20802179  0.50260679  0.28353066    -0.36530
N1141       N  0.22025552  0.50267886  0.29729520    -0.28710
C1142       C  0.23739716  0.50278639  0.28999021    -0.03950
C1143       C  0.23578302  0.50277856  0.27090966     0.04660
C1144       C  0.21711471  0.50266538  0.26723021     0.02750
H1145       H  0.25005171  0.50289625  0.29800908     0.07860
H1146       H  0.21056381  0.50266797  0.25370925     0.06690
N1147       N  0.30193649  0.50327535  0.14761138    -0.27700
N1148       N  0.31973676  0.50331766  0.14361251    -0.35550
C1149       C  0.32192420  0.50335858  0.12514735     0.00640
C1150       C  0.30462102  0.50332534  0.11677581     0.06670
C1151       C  0.29220797  0.50328207  0.13158425    -0.06430
H1152       H  0.33532748  0.50342335  0.11852674     0.07340
H1153       H  0.27727426  0.50323817  0.13082806     0.08540
Cu1154     Cu  0.34069022  0.50329039  0.16307684     0.44170
Cu1155     Cu  0.29306848  0.50320861  0.17508202     0.41990
Cu1156     Cu  0.33082459  0.50318161  0.21117567     0.43880
N1157       N  0.36105107  0.50327557  0.18316531    -0.35080
N1158       N  0.35773049  0.50324304  0.20118677    -0.29340
C1159       C  0.37398879  0.50329337  0.21038215    -0.05440
C1160       C  0.38826538  0.50336392  0.19739691     0.06780
C1161       C  0.37934982  0.50334449  0.18030056     0.00570
H1162       H  0.37524503  0.50330063  0.22536129     0.08230
H1163       H  0.38550650  0.50339726  0.16661429     0.07300
N1164       N  0.30258995  0.50315497  0.21644588    -0.36530
N1165       N  0.28928577  0.50316578  0.20374864    -0.28710
C1166       C  0.27280297  0.50313279  0.21241804    -0.03950
C1167       C  0.27594715  0.50310111  0.23130044     0.04660
C1168       C  0.29486343  0.50311452  0.23345648     0.02750
H1169       H  0.25954380  0.50312123  0.20545396     0.07860
H1170       H  0.30249161  0.50308608  0.24639273     0.06690
O1171       O  0.00616884  0.52978348  0.30365882    -0.73350
O1172       O  0.00557927  0.47465779  0.30268805    -0.74330
O1173       O  0.03284487  0.50180801  0.30254453    -0.62950
O1174       O  0.97829334  0.50261717  0.30351914    -0.71360
O1175       O  0.97691743  0.50316278  0.27274034    -0.70910
O1176       O  0.03318691  0.50250262  0.27173802    -0.62170
O1177       O  0.00469316  0.47446210  0.27184232    -0.74680
O1178       O  0.00534289  0.53126077  0.27288133    -0.73460
Cu1179     Cu  0.00566561  0.50220797  0.30402400     1.04560
Cu1180     Cu  0.00497657  0.50287641  0.27108141     1.04330
C1181       C  0.00615606  0.53936144  0.28873514     0.92850
C1182       C  0.00546386  0.46575385  0.28737464     0.91990
C1183       C  0.04180673  0.50184723  0.28727986     0.84130
C1184       C  0.96881518  0.50308818  0.28856900     0.90400
O1185       O  0.30772469  0.53117148  0.00012625    -0.73350
O1186       O  0.30767790  0.47608909  0.00006891    -0.74330
O1187       O  0.30784734  0.50366361  0.97273806    -0.62950
O1188       O  0.30793683  0.50357876  0.02730995    -0.71360
O1189       O  0.27733907  0.50360646  0.02862215    -0.70910
O1190       O  0.27724748  0.50366187  0.97153696    -0.62170
O1191       O  0.27703705  0.47540071  0.00009104    -0.74680
O1192       O  0.27708463  0.53189268  0.00011907    -0.73460
Cu1193     Cu  0.30868619  0.50362800  0.00003618     1.04560
Cu1194     Cu  0.27594590  0.50364539  0.00007775     1.04330
C1195       C  0.29264538  0.54038881  0.00026502     0.92850
C1196       C  0.29258865  0.46688851  0.00020922     0.91990
C1197       C  0.29297630  0.50365481  0.96326021     0.84130
C1198       C  0.29309204  0.50355393  0.03683883     0.90400
O1199       O  0.21743252  0.50324729  0.52792270    -0.73350
O1200       O  0.21737304  0.50322269  0.47167911    -0.74330
O1201       O  0.21740933  0.53133742  0.49977204    -0.62950
O1202       O  0.21743356  0.47515259  0.49979993    -0.71360
O1203       O  0.18677593  0.47558401  0.49980923    -0.70910
O1204       O  0.18675033  0.53090043  0.49992418    -0.62170
O1205       O  0.18671763  0.50327219  0.47220693    -0.74680
O1206       O  0.18677718  0.50319896  0.52747670    -0.73460
Cu1207     Cu  0.21854645  0.50324285  0.49978995     1.04560
Cu1208     Cu  0.18576113  0.50323997  0.49985063     1.04330
C1209       C  0.20194735  0.50323050  0.53655098     0.92850
C1210       C  0.20187580  0.50321585  0.46309358     0.91990
C1211       C  0.20193448  0.53996608  0.49991030     0.84130
C1212       C  0.20196186  0.46652004  0.49979295     0.90400
O1213       O  0.53264013  0.22727642  0.50085737    -0.73350
O1214       O  0.47611744  0.22638380  0.50020809    -0.74330
O1215       O  0.50395616  0.22682836  0.52877103    -0.62950
O1216       O  0.50467824  0.22704135  0.47231225    -0.71360
O1217       O  0.50594975  0.19624308  0.47295953    -0.70910
O1218       O  0.50352840  0.19600796  0.52791504    -0.62170
O1219       O  0.47752670  0.19562800  0.49939187    -0.74680
O1220       O  0.53200957  0.19649618  0.50149042    -0.73460
Cu1221     Cu  0.50434687  0.22810498  0.50054142     1.04560
Cu1222     Cu  0.50478851  0.19517512  0.50043651     1.04330
C1223       C  0.54115342  0.21164676  0.50129690     0.92850
C1224       C  0.46800834  0.21053814  0.49968354     0.91990
C1225       C  0.50322151  0.21113613  0.53714726     0.84130
C1226       C  0.50561524  0.21143373  0.46381530     0.90400
O1227       O  0.47604235  0.50365809  0.22326227    -0.73350
O1228       O  0.53254108  0.50339995  0.22422734    -0.74330
O1229       O  0.50438947  0.53186539  0.22365852    -0.62950
O1230       O  0.50406995  0.47520594  0.22392048    -0.71360
O1231       O  0.50424443  0.47598099  0.19311861    -0.70910
O1232       O  0.50515076  0.53089096  0.19288081    -0.62170
O1233       O  0.53200626  0.50308085  0.19344087    -0.74680
O1234       O  0.47747532  0.50380501  0.19249821    -0.73460
Cu1235     Cu  0.50426051  0.50353477  0.22499674     1.04560
Cu1236     Cu  0.50475917  0.50342953  0.19208128     1.04330
C1237       C  0.46794551  0.50375550  0.20740894     0.92850
C1238       C  0.54110058  0.50327758  0.20861695     0.91990
C1239       C  0.50484600  0.54023609  0.20793534     0.84130
C1240       C  0.50380881  0.46675164  0.20825096     0.90400
N1241       N  0.65155200  0.50282638  0.20360145    -0.27700
N1242       N  0.64805412  0.50254380  0.18563036    -0.35550
C1243       C  0.62978542  0.50261637  0.18286670     0.00640
C1244       C  0.62094874  0.50304365  0.19997226     0.06670
C1245       C  0.63530567  0.50311192  0.21290819    -0.06430
H1246       H  0.62362000  0.50232573  0.16920181     0.07340
H1247       H  0.63408101  0.50346208  0.22788909     0.08540
Cu1248     Cu  0.66789205  0.50235891  0.16523312     0.44170
Cu1249     Cu  0.67884930  0.50284845  0.21279002     0.41990
Cu1250     Cu  0.71550217  0.50275501  0.17463862     0.43880
N1251       N  0.68745530  0.50262799  0.14457282    -0.35080
N1252       N  0.70543817  0.50279193  0.14751403    -0.29340
C1253       C  0.71416919  0.50297189  0.13089956    -0.05440
C1254       C  0.70084836  0.50292962  0.11687887     0.06780
C1255       C  0.68411591  0.50270776  0.12629867     0.00570
H1256       H  0.72902769  0.50313317  0.12920915     0.08230
H1257       H  0.67033572  0.50260049  0.12053540     0.07300
N1258       N  0.72022100  0.50255298  0.20325094    -0.36530
N1259       N  0.70744941  0.50258830  0.21653304    -0.28710
C1260       C  0.71592411  0.50232859  0.23318095    -0.03950
C1261       C  0.73474494  0.50212386  0.23021726     0.04660
C1262       C  0.73706049  0.50227165  0.21120714     0.02750
H1263       H  0.70885668  0.50225033  0.24644851     0.07860
H1264       H  0.75001510  0.50214066  0.20366391     0.06690
N1265       N  0.80558853  0.49973606  0.35177395    -0.27700
N1266       N  0.82356873  0.49984376  0.35482460    -0.35550
C1267       C  0.82676933  0.50053339  0.37313183     0.00640
C1268       C  0.80995773  0.50093135  0.38234028     0.06670
C1269       C  0.79673786  0.50028609  0.36829986    -0.06430
H1270       H  0.84045171  0.50069156  0.37918079     0.07340
H1271       H  0.78186956  0.50060604  0.36992666     0.08540
Cu1272     Cu  0.84315662  0.49967116  0.33416557     0.44170
Cu1273     Cu  0.79541577  0.49958816  0.32471738     0.41990
Cu1274     Cu  0.83140735  0.50116623  0.28649481     0.43880
N1275       N  0.86257087  0.50062673  0.31336823    -0.35080
N1276       N  0.85874153  0.50130733  0.29546459    -0.29340
C1277       C  0.87478691  0.50220390  0.28587575    -0.05440
C1278       C  0.88934531  0.50216825  0.29854549     0.06780
C1279       C  0.88088825  0.50105431  0.31579112     0.00570
H1280       H  0.87573424  0.50304952  0.27089185     0.08230
H1281       H  0.88739558  0.50050545  0.32929692     0.07300
N1282       N  0.80283710  0.50082540  0.28283810    -0.36530
N1283       N  0.79020929  0.50023042  0.29623040    -0.28710
C1284       C  0.77328577  0.50028552  0.28845216    -0.03950
C1285       C  0.77541245  0.50094049  0.26942663     0.04660
C1286       C  0.79420403  0.50126891  0.26628026     0.02750
H1287       H  0.76040925  0.49994023  0.29612279     0.07860
H1288       H  0.80113957  0.50184070  0.25295431     0.06690
O1289       O  0.72377929  0.50314008  0.97146479    -0.73350
O1290       O  0.72353380  0.50323513  0.02798341    -0.74330
O1291       O  0.72332469  0.47467658  0.99982270    -0.62950
O1292       O  0.72341009  0.53171447  0.99969369    -0.71360
O1293       O  0.69280999  0.53042889  0.99951105    -0.70910
O1294       O  0.69272784  0.47604758  0.99974385    -0.62170
O1295       O  0.69289958  0.50332723  0.02720680    -0.74680
O1296       O  0.69314220  0.50312746  0.97203211    -0.73460
Cu1297     Cu  0.72474726  0.50319281  0.99974043     1.04560
Cu1298     Cu  0.69200812  0.50323782  0.99961626     1.04330
C1299       C  0.70827283  0.50308750  0.96287513     0.92850
C1300       C  0.70795963  0.50328337  0.03646175     0.91990
C1301       C  0.70754560  0.46650616  0.99985590     0.84130
C1302       C  0.70765415  0.53992937  0.99957645     0.90400
N1303       N  0.84837488  0.20533763  0.00052867    -0.27700
N1304       N  0.85187667  0.18734737  0.00038504    -0.35550
C1305       C  0.87018882  0.18463976  0.00048298     0.00640
C1306       C  0.87894795  0.20178972  0.00078723     0.06670
C1307       C  0.86457852  0.21467337  0.00072945    -0.06430
H1308       H  0.87650188  0.17102563  0.00023994     0.07340
H1309       H  0.86576092  0.22965850  0.00101630     0.08540
Cu1310     Cu  0.83185633  0.16697828  0.00034235     0.44170
Cu1311     Cu  0.82125905  0.21495808  0.00062486     0.41990
Cu1312     Cu  0.78424817  0.17790497  0.00083131     0.43880
N1313       N  0.81140369  0.14705363  0.00056607    -0.35080
N1314       N  0.79354148  0.15069749  0.00073189    -0.29340
C1315       C  0.78410248  0.13451397  0.00074506    -0.05440
C1316       C  0.79679180  0.11997109  0.00057777     0.06780
C1317       C  0.81394278  0.12864453  0.00048362     0.00570
H1318       H  0.76918446  0.13348619  0.00082105     0.08230
H1319       H  0.82746237  0.12227996  0.00032089     0.07300
N1320       N  0.77986702  0.20637417  0.00081719    -0.36530
N1321       N  0.79281455  0.21944866  0.00073709    -0.28710
C1322       C  0.78455963  0.23620817  0.00073846    -0.03950
C1323       C  0.76570578  0.23344512  0.00082387     0.04660
C1324       C  0.76313530  0.21450402  0.00087160     0.02750
H1325       H  0.79177999  0.24938433  0.00067926     0.07860
H1326       H  0.75009574  0.20712153  0.00093587     0.06690
N1327       N  0.69841878  0.35596865  0.00072631    -0.27700
N1328       N  0.68061433  0.35990065  0.00073508    -0.35550
C1329       C  0.67839671  0.37836166  0.00064612     0.00640
C1330       C  0.69570722  0.38673977  0.00058190     0.06670
C1331       C  0.70813331  0.37198117  0.00063262    -0.06430
H1332       H  0.66499128  0.38497120  0.00060204     0.07340
H1333       H  0.72306693  0.37274535  0.00059787     0.08540
Cu1334     Cu  0.65986691  0.34021599  0.00082009     0.44170
Cu1335     Cu  0.70736220  0.32866247  0.00080403     0.41990
Cu1336     Cu  0.67019302  0.29199688  0.00085621     0.43880
N1337       N  0.63976363  0.31986627  0.00083609    -0.35080
N1338       N  0.64318284  0.30185925  0.00084180    -0.29340
C1339       C  0.62694836  0.29258695  0.00082643    -0.05440
C1340       C  0.61260758  0.30550784  0.00080956     0.06780
C1341       C  0.62145835  0.32263703  0.00081781     0.00570
H1342       H  0.62574338  0.27760372  0.00082025     0.08230
H1343       H  0.61526025  0.33629641  0.00080499     0.07300
N1344       N  0.69857032  0.28721147  0.00086650    -0.36530
N1345       N  0.71160391  0.30019235  0.00085025    -0.28710
C1346       C  0.72827936  0.29195294  0.00085359    -0.03950
C1347       C  0.72558029  0.27303014  0.00087316     0.04660
C1348       C  0.70670662  0.27039339  0.00088072     0.02750
H1349       H  0.74136740  0.29924831  0.00083546     0.07860
H1350       H  0.69939555  0.25726793  0.00088908     0.06690
N1351       N  0.84829253  0.00342827  0.20232525    -0.27700
N1352       N  0.85172485  0.00321071  0.18432638    -0.35550
C1353       C  0.87001685  0.00325172  0.18152557     0.00640
C1354       C  0.87887597  0.00354991  0.19863013     0.06670
C1355       C  0.86453906  0.00362373  0.21157980    -0.06430
H1356       H  0.87619963  0.00306781  0.16785394     0.07340
H1357       H  0.86576278  0.00389717  0.22655978     0.08540
Cu1358     Cu  0.83167464  0.00308175  0.16402490     0.44170
Cu1359     Cu  0.82118391  0.00353889  0.21199940     0.41990
Cu1360     Cu  0.78412947  0.00360708  0.17489255     0.43880
N1361       N  0.81130165  0.00330465  0.14405601    -0.35080
N1362       N  0.79343399  0.00352978  0.14767023    -0.29340
C1363       C  0.78403926  0.00371772  0.13146533    -0.05440
C1364       C  0.79677059  0.00362167  0.11694643     0.06780
C1365       C  0.81389333  0.00333977  0.12565355     0.00570
H1366       H  0.76912611  0.00395680  0.13040508     0.08230
H1367       H  0.82742936  0.00315901  0.11931311     0.07300
N1368       N  0.77977585  0.00359132  0.20338285    -0.36530
N1369       N  0.79272249  0.00356727  0.21645482    -0.28710
C1370       C  0.78446297  0.00354849  0.23321695    -0.03950
C1371       C  0.76560907  0.00356191  0.23046402     0.04660
C1372       C  0.76304223  0.00358830  0.21152261     0.02750
H1373       H  0.79168087  0.00352209  0.24638912     0.07860
H1374       H  0.75000469  0.00359953  0.20414725     0.06690
N1375       N  0.69868835  0.00338542  0.35322425    -0.27700
N1376       N  0.68088920  0.00349234  0.35718944    -0.35550
C1377       C  0.67868884  0.00340923  0.37564791     0.00640
C1378       C  0.69600258  0.00324176  0.38399929     0.06670
C1379       C  0.70841834  0.00323282  0.36922364    -0.06430
H1380       H  0.66528553  0.00344547  0.38226970     0.07340
H1381       H  0.72335174  0.00310620  0.36996871     0.08540
Cu1382     Cu  0.66008034  0.00366992  0.33760410     0.44170
Cu1383     Cu  0.70758704  0.00341193  0.32589547     0.41990
Cu1384     Cu  0.67025371  0.00350175  0.28941004     0.43880
N1385       N  0.63988702  0.00363910  0.31737634    -0.35080
N1386       N  0.64326183  0.00354774  0.29936039    -0.29340
C1387       C  0.62700470  0.00344955  0.29014403    -0.05440
C1388       C  0.61269633  0.00346723  0.30311137     0.06780
C1389       C  0.62158637  0.00360761  0.32021011     0.00570
H1390       H  0.62576367  0.00331698  0.27516408     0.08230
H1391       H  0.61540985  0.00368342  0.33388723     0.07300
N1392       N  0.69861750  0.00349057  0.28448514    -0.36530
N1393       N  0.71170790  0.00346010  0.29740154    -0.28710
C1394       C  0.72834810  0.00346813  0.28907942    -0.03950
C1395       C  0.72556838  0.00350513  0.27016891     0.04660
C1396       C  0.70668197  0.00351891  0.26762657     0.02750
H1397       H  0.74146599  0.00344918  0.29630951     0.07860
H1398       H  0.69931456  0.00354850  0.25453863     0.06690
O1399       O  0.77079841  0.00362404  0.02880221    -0.73350
O1400       O  0.77038480  0.00311217  0.97208427    -0.74330
O1401       O  0.77057284  0.97497222  0.00071630    -0.62950
O1402       O  0.77067738  0.03178384  0.00022140    -0.71360
O1403       O  0.80128662  0.03058921  0.99963456    -0.70910
O1404       O  0.80119501  0.97600941  0.00072421    -0.62170
O1405       O  0.80103152  0.00265587  0.97279375    -0.74680
O1406       O  0.80141089  0.00381970  0.02749751    -0.73460
Cu1407     Cu  0.76935837  0.00338936  0.00045278     1.04560
Cu1408     Cu  0.80210824  0.00328718  0.00014517     1.04330
C1409       C  0.78653078  0.00381118  0.03699909     0.92850
C1410       C  0.78597036  0.00254900  0.96360628     0.91990
C1411       C  0.78624936  0.96664033  0.00089953     0.84130
C1412       C  0.78638837  0.04003851  0.99990235     0.90400
N1413       N  0.65161702  0.20635234  0.50012202    -0.27700
N1414       N  0.64809014  0.18838265  0.50003122    -0.35550
C1415       C  0.62981695  0.18564227  0.50022166     0.00640
C1416       C  0.62100122  0.20276307  0.50049740     0.06670
C1417       C  0.63538568  0.21567980  0.50039177    -0.06430
H1418       H  0.62364716  0.17197679  0.50016535     0.07340
H1419       H  0.63419232  0.23066344  0.50058284     0.08540
Cu1420     Cu  0.66788302  0.16793487  0.49988919     0.44170
Cu1421     Cu  0.67892587  0.21552775  0.49994933     0.41990
Cu1422     Cu  0.71548970  0.17733034  0.49987150     0.43880
N1423       N  0.68743577  0.14725708  0.50002211    -0.35080
N1424       N  0.70541909  0.15021052  0.50002105    -0.29340
C1425       C  0.71415886  0.13360624  0.50011753    -0.05440
C1426       C  0.70084696  0.11957219  0.50018667     0.06780
C1427       C  0.68410634  0.12897636  0.50012596     0.00570
H1428       H  0.72901915  0.13193267  0.50012992     0.08230
H1429       H  0.67032845  0.12319453  0.50014689     0.07300
N1430       N  0.72027275  0.20592627  0.49965449    -0.36530
N1431       N  0.70753471  0.21923331  0.49967960    -0.28710
C1432       C  0.71605463  0.23586488  0.49952146    -0.03950
C1433       C  0.73486905  0.23285812  0.49938591     0.04660
C1434       C  0.73713414  0.21384471  0.49948105     0.02750
H1435       H  0.70902562  0.24914630  0.49953626     0.07860
H1436       H  0.75006740  0.20627483  0.49945716     0.06690
N1437       N  0.80578801  0.35422619  0.49980861    -0.27700
N1438       N  0.82345934  0.35751828  0.49661296    -0.35550
C1439       C  0.82620917  0.37588352  0.49520651     0.00640
C1440       C  0.80945208  0.38475895  0.49775184     0.06670
C1441       C  0.79674030  0.37060516  0.50076995    -0.06430
H1442       H  0.83952483  0.38229523  0.49274267     0.07340
H1443       H  0.78202002  0.37207261  0.50303653     0.08540
Cu1444     Cu  0.84317000  0.33701639  0.49497563     0.44170
Cu1445     Cu  0.79592775  0.32712977  0.50151294     0.41990
Cu1446     Cu  0.83162732  0.28913608  0.49927725     0.43880
N1447       N  0.86256718  0.31618463  0.49616815    -0.35080
N1448       N  0.85883037  0.29833416  0.49798633    -0.29340
C1449       C  0.87492096  0.28884595  0.49893200    -0.05440
C1450       C  0.88943378  0.30150995  0.49770719     0.06780
C1451       C  0.88087704  0.31865855  0.49590534     0.00570
H1452       H  0.87592336  0.27393939  0.50060909     0.08230
H1453       H  0.88726813  0.33215775  0.49453573     0.07300
N1454       N  0.80311112  0.28532129  0.49980457    -0.36530
N1455       N  0.79052154  0.29871708  0.50064007    -0.28710
C1456       C  0.77357922  0.29097844  0.50056467    -0.03950
C1457       C  0.77566263  0.27195970  0.49966320     0.04660
C1458       C  0.79444787  0.26878101  0.49919840     0.02750
H1459       H  0.76072612  0.29866616  0.50110327     0.07860
H1460       H  0.80135274  0.25545437  0.49846298     0.06690
O1461       O  0.69335052  0.97470825  0.50042073    -0.73350
O1462       O  0.69303397  0.02987676  0.50047483    -0.74330
O1463       O  0.69294931  0.00233900  0.47327852    -0.62950
O1464       O  0.69295548  0.00228080  0.52764413    -0.71360
O1465       O  0.72355411  0.00247756  0.52895250    -0.70910
O1466       O  0.72354810  0.00248961  0.47193108    -0.62170
O1467       O  0.72366696  0.03071020  0.50043350    -0.74680
O1468       O  0.72398755  0.97417692  0.50043374    -0.73460
Cu1469     Cu  0.69218605  0.00228621  0.50045947     1.04560
Cu1470     Cu  0.72492512  0.00245991  0.50044077     1.04330
C1471       C  0.70848612  0.96556866  0.50038175     0.92850
C1472       C  0.70808018  0.03916082  0.50044564     0.91990
C1473       C  0.70778028  0.00247115  0.46375060     0.84130
C1474       C  0.70778791  0.00245310  0.53715351     0.90400
O1475       O  0.81958063  0.49991470  0.52651475    -0.73350
O1476       O  0.81866586  0.50205572  0.47137234    -0.74330
O1477       O  0.81951626  0.52862581  0.49994844    -0.62950
O1478       O  0.81855903  0.47322506  0.49770355    -0.71360
O1479       O  0.78790988  0.47336513  0.49968937    -0.70910
O1480       O  0.78887212  0.52955460  0.49946397    -0.62170
O1481       O  0.78800290  0.50138965  0.47128725    -0.74680
O1482       O  0.78898538  0.50143255  0.52772805    -0.73460
Cu1483     Cu  0.82006993  0.50092109  0.49888797     1.04560
Cu1484     Cu  0.78729461  0.50144958  0.49956599     1.04330
C1485       C  0.80465138  0.50056287  0.53597633     0.92850
C1486       C  0.80339904  0.50198495  0.46248793     0.91990
C1487       C  0.80447491  0.53794251  0.49984008     0.84130
C1488       C  0.80318918  0.46451016  0.49840817     0.90400
C1489       C  0.81736501  0.41597016  0.48522811    -0.13750
C1490       C  0.80636682  0.40503891  0.49703359     0.08400
C1491       C  0.79336023  0.41376472  0.50864408    -0.13750
C1492       C  0.79184906  0.43321322  0.50882197    -0.13750
C1493       C  0.80337831  0.44407390  0.49743947     0.08400
C1494       C  0.81592898  0.43527916  0.48547797    -0.13750
H1495       H  0.82727438  0.40957960  0.47591777     0.12380
H1496       H  0.78484213  0.40560904  0.51797605     0.12380
H1497       H  0.78216719  0.43978169  0.51825362     0.12380
H1498       H  0.82477054  0.44339693  0.47640778     0.12380
C1499       C  0.72095512  0.09064783  0.50030900    -0.13750
C1500       C  0.70332374  0.09900611  0.50027857     0.08400
C1501       C  0.68766504  0.08741781  0.50032438    -0.13750
C1502       C  0.68944779  0.06818767  0.50038853    -0.13750
C1503       C  0.70694229  0.05975375  0.50040983     0.08400
C1504       C  0.72275277  0.07116856  0.50037326    -0.13750
H1505       H  0.73334237  0.09908614  0.50027666     0.12380
H1506       H  0.67381908  0.09300727  0.50030621     0.12380
H1507       H  0.67693114  0.05991038  0.50041387     0.12380
H1508       H  0.73644440  0.06507379  0.50038760     0.12380
C1509       C  0.74918082  0.24668948  0.49933550    -0.13680
C1510       C  0.76123725  0.25825279  0.49941204    -0.15240
C1511       C  0.68782753  0.00290161  0.43580807    -0.13750
C1512       C  0.70579205  0.00265670  0.44323643     0.08400
C1513       C  0.72092302  0.00263710  0.43094870    -0.13750
C1514       C  0.71794899  0.00283240  0.41159374    -0.13750
C1515       C  0.69982085  0.00306143  0.40431984     0.08400
C1516       C  0.68490185  0.00310407  0.41678609    -0.13750
H1517       H  0.67574354  0.00295028  0.44472269     0.12380
H1518       H  0.73492900  0.00246309  0.43625335     0.12380
H1519       H  0.72980665  0.00279907  0.40240868     0.12380
H1520       H  0.67074560  0.00329163  0.41206964     0.12380
C1521       C  0.77544846  0.00348986  0.08891122    -0.13750
C1522       C  0.79341120  0.00382536  0.09654683     0.08400
C1523       C  0.80858697  0.00432359  0.08438007    -0.13750
C1524       C  0.80605136  0.00437859  0.06528228    -0.13750
C1525       C  0.78824783  0.00395847  0.05752449     0.08400
C1526       C  0.77287825  0.00355456  0.06951396    -0.13750
H1527       H  0.76340787  0.00311262  0.09784617     0.12380
H1528       H  0.82263633  0.00468478  0.08939913     0.12380
H1529       H  0.81827613  0.00472976  0.05657059     0.12380
H1530       H  0.75897875  0.00322615  0.06393907     0.12380
C1531       C  0.75148127  0.00354260  0.24441571    -0.13680
C1532       C  0.73955968  0.00352594  0.25608038    -0.15240
C1533       C  0.80851569  0.08738812  0.00005173    -0.13750
C1534       C  0.79336881  0.09957994  0.00039392     0.08400
C1535       C  0.77538094  0.09197552  0.00052010    -0.13750
C1536       C  0.77276280  0.07257901  0.00031448    -0.13750
C1537       C  0.78810860  0.06056784  0.99996128     0.08400
C1538       C  0.80593454  0.06830334  0.99983111    -0.13750
H1539       H  0.82258482  0.09237346  0.99994454     0.12380
H1540       H  0.76336133  0.10093180  0.00078992     0.12380
H1541       H  0.75884767  0.06702306  0.00045223     0.12380
H1542       H  0.81815019  0.05958557  0.99958946     0.12380
C1543       C  0.75157640  0.24738283  0.00084737    -0.13680
C1544       C  0.73962765  0.25901025  0.00086296    -0.15240
C1545       C  0.72065008  0.43369404  0.99996135    -0.13750
C1546       C  0.70553224  0.44598857  0.00006950     0.08400
C1547       C  0.68756111  0.43856290  0.00040948    -0.13750
C1548       C  0.68462061  0.41953598  0.00060248    -0.13750
C1549       C  0.69952900  0.40706598  0.00044855     0.08400
C1550       C  0.71766159  0.41433939  0.00014463    -0.13750
H1551       H  0.73466206  0.43899384  0.99971456     0.12380
H1552       H  0.67548909  0.44748226  0.00053706     0.12380
H1553       H  0.67046127  0.41481337  0.00087568     0.12380
H1554       H  0.72951113  0.40515554  0.00002717     0.12380
C1555       C  0.82205481  0.50822718  0.41395388    -0.13750
C1556       C  0.80733418  0.50216056  0.40276482     0.08400
C1557       C  0.79063780  0.49691889  0.41137182    -0.13750
C1558       C  0.78899893  0.49719703  0.43084307    -0.13750
C1559       C  0.80405653  0.50267083  0.44193362     0.08400
C1560       C  0.82046343  0.50841206  0.43321779    -0.13750
H1561       H  0.83496019  0.51284053  0.40789856     0.12380
H1562       H  0.77904413  0.49218278  0.40312697     0.12380
H1563       H  0.77618007  0.49270012  0.43721170     0.12380
H1564       H  0.83222773  0.51300624  0.44132233     0.12380
C1565       C  0.68762320  0.50319479  0.08475387    -0.13750
C1566       C  0.70329912  0.50307900  0.09631043     0.08400
C1567       C  0.72091827  0.50308394  0.08791841    -0.13750
C1568       C  0.72268481  0.50317128  0.06843577    -0.13750
C1569       C  0.70685600  0.50325877  0.05705450     0.08400
C1570       C  0.68937516  0.50327893  0.06552239    -0.13750
H1571       H  0.67378302  0.50322268  0.09036833     0.12380
H1572       H  0.73331548  0.50299842  0.09633161     0.12380
H1573       H  0.73636869  0.50315320  0.06231164     0.12380
H1574       H  0.67684736  0.50334949  0.05727225     0.12380
C1575       C  0.74901146  0.50171289  0.24408622    -0.13680
C1576       C  0.76102220  0.50135243  0.25568861    -0.15240
C1577       C  0.57319327  0.50210240  0.22301702    -0.13750
C1578       C  0.56159000  0.50349987  0.20737491     0.08400
C1579       C  0.56972148  0.50511533  0.18972696    -0.13750
C1580       C  0.58878300  0.50514262  0.18759091    -0.13750
C1581       C  0.60057002  0.50345167  0.20301145     0.08400
C1582       C  0.59256741  0.50205632  0.22084389    -0.13750
H1583       H  0.56733101  0.50089424  0.23682132     0.12380
H1584       H  0.56133220  0.50640136  0.17732162     0.12380
H1585       H  0.59408409  0.50654908  0.17363142     0.12380
H1586       H  0.60120263  0.50077943  0.23305749     0.12380
C1587       C  0.56971914  0.19260700  0.50215217    -0.13750
C1588       C  0.56164594  0.21033755  0.50143641     0.08400
C1589       C  0.57330905  0.22598187  0.50059063    -0.13750
C1590       C  0.59267673  0.22374497  0.50035022    -0.13750
C1591       C  0.60062066  0.20584260  0.50094008     0.08400
C1592       C  0.58876966  0.19040174  0.50192163    -0.13750
H1593       H  0.56129278  0.18017313  0.50284724     0.12380
H1594       H  0.56750056  0.23984256  0.50001251     0.12380
H1595       H  0.60135213  0.23598030  0.49960576     0.12380
H1596       H  0.59399513  0.17636904  0.50253525     0.12380
C1597       C  0.93661996  0.50086063  0.27486482    -0.13750
C1598       C  0.94840818  0.50361918  0.29017556     0.08400
C1599       C  0.94055775  0.50666164  0.30774729    -0.13750
C1600       C  0.92151914  0.50654752  0.31016936    -0.13750
C1601       C  0.90958878  0.50322570  0.29513279     0.08400
C1602       C  0.91731618  0.50063662  0.27733634    -0.13750
H1603       H  0.94229857  0.49854451  0.26112444     0.12380
H1604       H  0.94915747  0.50911973  0.31982358     0.12380
H1605       H  0.91629759  0.50909341  0.32401014     0.12380
H1606       H  0.90852635  0.49810892  0.26543265     0.12380
C1607       C  0.31580620  0.50299932  0.08396202    -0.13750
C1608       C  0.30085439  0.50331797  0.09640370     0.08400
C1609       C  0.28275940  0.50364340  0.08904505    -0.13750
C1610       C  0.27985496  0.50369924  0.06966004    -0.13750
C1611       C  0.29502002  0.50343739  0.05739851     0.08400
C1612       C  0.31294827  0.50306628  0.06490859    -0.13750
H1613       H  0.32994439  0.50268477  0.08872404     0.12380
H1614       H  0.27087393  0.50388553  0.09819226     0.12380
H1615       H  0.26586789  0.50397655  0.06431057     0.12380
H1616       H  0.32505549  0.50281993  0.05602961     0.12380
C1617       C  0.42066627  0.50361643  0.18528139    -0.13750
C1618       C  0.40861623  0.50348908  0.20059494     0.08400
C1619       C  0.41630919  0.50349238  0.21861263    -0.13750
C1620       C  0.43561141  0.50361153  0.22112064    -0.13750
C1621       C  0.44750161  0.50373773  0.20564336     0.08400
C1622       C  0.43971209  0.50374183  0.18776128    -0.13750
H1623       H  0.41556831  0.50361823  0.17117972     0.12380
H1624       H  0.40748789  0.50339304  0.23076740     0.12380
H1625       H  0.44119588  0.50358823  0.23508358     0.12380
H1626       H  0.44835955  0.50382145  0.17545706     0.12380
C1627       C  0.07381227  0.50497172  0.27312154    -0.13750
C1628       C  0.06222176  0.50097785  0.28833382     0.08400
C1629       C  0.07028517  0.49646206  0.30548412    -0.13750
C1630       C  0.08930848  0.49658617  0.30771302    -0.13750
C1631       C  0.10102148  0.50138624  0.29291687     0.08400
C1632       C  0.09315275  0.50518674  0.27541424    -0.13750
H1633       H  0.06795346  0.50837900  0.25969638     0.12380
H1634       H  0.06185562  0.49291240  0.31742901     0.12380
H1635       H  0.09473013  0.49293186  0.32123102     0.12380
H1636       H  0.10185806  0.50881351  0.26370868     0.12380
C1637       C  0.18272267  0.50287630  0.41429651    -0.13750
C1638       C  0.19877386  0.50312425  0.40323855     0.08400
C1639       C  0.21611142  0.50324490  0.41213260    -0.13750
C1640       C  0.21728460  0.50324418  0.43160969    -0.13750
C1641       C  0.20113907  0.50312414  0.44252241     0.08400
C1642       C  0.18389330  0.50290015  0.43359627    -0.13750
H1643       H  0.16908147  0.50264198  0.40821160     0.12380
H1644       H  0.22877406  0.50343419  0.40411454     0.12380
H1645       H  0.23078886  0.50338959  0.43810188     0.12380
H1646       H  0.17115304  0.50274320  0.44153088     0.12380
C1647       C  0.25043523  0.50291878  0.25749023    -0.13680
C1648       C  0.26227417  0.50301647  0.24572618    -0.15240
C1649       C  0.92643300  0.22502680  0.99778324    -0.13750
C1650       C  0.93818308  0.20972455  0.00075121     0.08400
C1651       C  0.93024056  0.19228137  0.00437995    -0.13750
C1652       C  0.91116983  0.18998284  0.00467556    -0.13750
C1653       C  0.89927357  0.20501725  0.00121556     0.08400
C1654       C  0.90709953  0.22267796  0.99797438    -0.13750
H1655       H  0.93215720  0.23866615  0.99503802     0.12380
H1656       H  0.93879818  0.18021162  0.00705143     0.12380
H1657       H  0.90588567  0.17625534  0.00767844     0.12380
H1658       H  0.89835056  0.23458950  0.99530986     0.12380
C1659       C  0.93027402  0.00502570  0.18880408    -0.13750
C1660       C  0.93817317  0.00414833  0.20661121     0.08400
C1661       C  0.92636219  0.00322112  0.22213448    -0.13750
C1662       C  0.90703396  0.00308501  0.21973238    -0.13750
C1663       C  0.89924223  0.00385833  0.20177785     0.08400
C1664       C  0.91121792  0.00489785  0.18643114    -0.13750
H1665       H  0.93884406  0.00578476  0.17646746     0.12380
H1666       H  0.93202940  0.00252668  0.23604583     0.12380
H1667       H  0.89826673  0.00228019  0.23190326     0.12380
H1668       H  0.90606010  0.00565304  0.17237353     0.12380
C1669       C  0.01950533  0.41833836  0.30424905    -0.13750
C1670       C  0.00718637  0.40661222  0.29483121     0.08400
C1671       C  0.99521486  0.41430805  0.28143819    -0.13750
C1672       C  0.99505800  0.43359000  0.27818063    -0.13750
C1673       C  0.00689906  0.44530762  0.28827702     0.08400
C1674       C  0.01935721  0.43744614  0.30100795    -0.13750
H1675       H  0.02909654  0.41274989  0.31437307     0.12380
H1676       H  0.98552493  0.40552959  0.27405343     0.12380
H1677       H  0.98520452  0.43939974  0.26844266     0.12380
H1678       H  0.02874098  0.44621411  0.30881378     0.12380
C1679       C  0.98556940  0.19264793  0.08499356    -0.13750
C1680       C  0.99455454  0.20560240  0.09643368     0.08400
C1681       C  0.00225329  0.22164238  0.08830613    -0.13750
C1682       C  0.00167995  0.22415880  0.06894116    -0.13750
C1683       C  0.99345403  0.21062553  0.05753897     0.08400
C1684       C  0.98507693  0.19509933  0.06582079    -0.13750
H1685       H  0.97905470  0.18040761  0.09080978     0.12380
H1686       H  0.00925351  0.23186548  0.09680836     0.12380
H1687       H  0.00825571  0.23624711  0.06285359     0.12380
H1688       H  0.97833420  0.18462171  0.05739663     0.12380
C1689       C  0.00752474  0.08803410  0.19181627    -0.13750
C1690       C  0.99708118  0.09944570  0.20363275     0.08400
C1691       C  0.98738881  0.09133654  0.21853580    -0.13750
C1692       C  0.98751894  0.07195466  0.22098790    -0.13750
C1693       C  0.99733519  0.06057507  0.20853860     0.08400
C1694       C  0.00762857  0.06884592  0.19422495    -0.13750
H1695       H  0.01545532  0.09393403  0.18047910     0.12380
H1696       H  0.97919950  0.09988396  0.22780176     0.12380
H1697       H  0.97941258  0.06583509  0.23208384     0.12380
H1698       H  0.01555373  0.06038700  0.18463747     0.12380
C1699       C  0.00154600  0.24716089  0.24404124    -0.13680
C1700       C  0.00186854  0.25900414  0.25588141    -0.15240
C1701       C  0.18107228  0.00391830  0.08519505    -0.13750
C1702       C  0.19638558  0.00364350  0.09719107     0.08400
C1703       C  0.21425897  0.00347368  0.08932105    -0.13750
C1704       C  0.21661005  0.00351184  0.06988521    -0.13750
C1705       C  0.20111423  0.00371787  0.05806758     0.08400
C1706       C  0.18339360  0.00394281  0.06605074    -0.13750
H1707       H  0.16707255  0.00413001  0.09038990     0.12380
H1708       H  0.22639775  0.00326835  0.09810392     0.12380
H1709       H  0.23045568  0.00334686  0.06414441     0.12380
H1710       H  0.17107948  0.00413856  0.05748376     0.12380
C1711       C  0.08337197  0.00196807  0.22067974    -0.13750
C1712       C  0.09131093  0.00371303  0.20284802     0.08400
C1713       C  0.07946226  0.00560579  0.18749867    -0.13750
C1714       C  0.06038954  0.00540117  0.18970669    -0.13750
C1715       C  0.05233319  0.00340530  0.20736059     0.08400
C1716       C  0.06401066  0.00184394  0.22292596    -0.13750
H1717       H  0.09205110  0.00052938  0.23284269     0.12380
H1718       H  0.08474509  0.00731022  0.17355808     0.12380
H1719       H  0.05192988  0.00686492  0.17737018     0.12380
H1720       H  0.05821435  0.00036401  0.23673280     0.12380
C1721       C  0.23939857  0.00364300  0.24517531    -0.13680
C1722       C  0.25146837  0.00364633  0.25671450    -0.15240
C1723       C  0.27974170  0.41544883  0.99903077    -0.13750
C1724       C  0.29726628  0.40711358  0.00103267     0.08400
C1725       C  0.31278696  0.41867901  0.00313514    -0.13750
C1726       C  0.31101851  0.43789920  0.00288855    -0.13750
C1727       C  0.29366014  0.44631997  0.00065149     0.08400
C1728       C  0.27794564  0.43492129  0.99886806    -0.13750
H1729       H  0.26747044  0.40699545  0.99741074     0.12380
H1730       H  0.32649790  0.41305542  0.00503558     0.12380
H1731       H  0.32342696  0.44618087  0.00450148     0.12380
H1732       H  0.26436060  0.44102329  0.99717643     0.12380
C1733       C  0.18114138  0.08808995  0.00119714    -0.13750
C1734       C  0.19646459  0.10008250  0.00089377     0.08400
C1735       C  0.21432997  0.09220821  0.00063467    -0.13750
C1736       C  0.21666442  0.07277135  0.00060805    -0.13750
C1737       C  0.20115790  0.06095842  0.00083243     0.08400
C1738       C  0.18344611  0.06894576  0.00115177    -0.13750
H1739       H  0.16714822  0.09328553  0.00148669     0.12380
H1740       H  0.22647659  0.10099007  0.00040721     0.12380
H1741       H  0.23050265  0.06702669  0.00037774     0.12380
H1742       H  0.17112388  0.06038108  0.00137601     0.12380
C1743       C  0.06399090  0.22552852  0.99983100    -0.13750
C1744       C  0.05232749  0.20993412  0.00130064     0.08400
C1745       C  0.06040040  0.19225640  0.00291064    -0.13750
C1746       C  0.07948048  0.19006491  0.00288989    -0.13750
C1747       C  0.09131067  0.20546480  0.00118656     0.08400
C1748       C  0.08334821  0.22330626  0.99977071    -0.13750
H1749       H  0.05818580  0.23934830  0.99858687     0.12380
H1750       H  0.05195032  0.17988493  0.00418235     0.12380
H1751       H  0.08477816  0.17610287  0.00426691     0.12380
H1752       H  0.09200551  0.23550690  0.99846038     0.12380
C1753       C  0.23936276  0.24816538  0.00101085    -0.13680
C1754       C  0.25142081  0.25972676  0.00100987    -0.15240
C1755       C  0.31120772  0.00533257  0.43479445    -0.13750
C1756       C  0.29377649  0.00363958  0.44320624     0.08400
C1757       C  0.27803997  0.00223792  0.43179331    -0.13750
C1758       C  0.27987039  0.00229726  0.41232217    -0.13750
C1759       C  0.29745672  0.00379728  0.40399575     0.08400
C1760       C  0.31301456  0.00545776  0.41557561    -0.13750
H1761       H  0.32364840  0.00659693  0.44307956     0.12380
H1762       H  0.26439944  0.00095578  0.43788362     0.12380
H1763       H  0.26756781  0.00101920  0.40386569     0.12380
H1764       H  0.32679063  0.00691136  0.40996972     0.12380
C1765       C  0.94074152  0.31100223  0.49945694    -0.13750
C1766       C  0.94853399  0.29314759  0.49889607     0.08400
C1767       C  0.93668201  0.27764619  0.49833848    -0.13750
C1768       C  0.91737320  0.28014780  0.49808787    -0.13750
C1769       C  0.90971188  0.29816978  0.49841387     0.08400
C1770       C  0.92173693  0.31346563  0.49927816    -0.13750
H1771       H  0.94934932  0.32331314  0.50006960     0.12380
H1772       H  0.94229876  0.26369767  0.49797868     0.12380
H1773       H  0.90852498  0.26803149  0.49747053     0.12380
H1774       H  0.91666340  0.32756088  0.49988532     0.12380
C1775       C  0.01673312  0.30869900  0.43495847    -0.13750
C1776       C  0.00831194  0.29277674  0.44247223     0.08400
C1777       C  0.00063315  0.27959361  0.43029922    -0.13750
C1778       C  0.00067951  0.28282908  0.41098743    -0.13750
C1779       C  0.00846097  0.29924845  0.40363544     0.08400
C1780       C  0.01683801  0.31186860  0.41587084    -0.13750
H1781       H  0.02307952  0.31896490  0.44393455     0.12380
H1782       H  0.99403132  0.26720968  0.43572474     0.12380
H1783       H  0.99414308  0.27279555  0.40191192     0.12380
H1784       H  0.02340262  0.32438792  0.41076168     0.12380
C1785       C  0.28270272  0.09218283  0.50055387    -0.13750
C1786       C  0.30079730  0.09955071  0.50014028     0.08400
C1787       C  0.31574580  0.08711636  0.49973773    -0.13750
C1788       C  0.31289023  0.06806257  0.49983765    -0.13750
C1789       C  0.29496498  0.06054090  0.50031634     0.08400
C1790       C  0.27979981  0.07279398  0.50063612    -0.13750
H1791       H  0.27082168  0.10132394  0.50085786     0.12380
H1792       H  0.32988410  0.09188442  0.49932537     0.12380
H1793       H  0.32499619  0.05919404  0.49952673     0.12380
H1794       H  0.26581292  0.06743504  0.50098894     0.12380
C1795       C  0.42071813  0.18839900  0.49941296    -0.13750
C1796       C  0.40867256  0.20370478  0.49978047     0.08400
C1797       C  0.41637023  0.22172424  0.49999310    -0.13750
C1798       C  0.43567385  0.22424004  0.49989450    -0.13750
C1799       C  0.44756142  0.20877076  0.49955919     0.08400
C1800       C  0.43976577  0.19088680  0.49930299    -0.13750
H1801       H  0.41561380  0.17429769  0.49920115     0.12380
H1802       H  0.40755351  0.23387123  0.50028219     0.12380
H1803       H  0.44126149  0.23820375  0.50012121     0.12380
H1804       H  0.44840815  0.17858861  0.49906066     0.12380
C1805       C  0.09343138  0.27901748  0.50038314    -0.13750
C1806       C  0.10115258  0.29700949  0.49979718     0.08400
C1807       C  0.08915405  0.31235453  0.49943425    -0.13750
C1808       C  0.07017977  0.30998932  0.49975400    -0.13750
C1809       C  0.06231304  0.29219103  0.50038617     0.08400
C1810       C  0.07409252  0.27661262  0.50065168    -0.13750
H1811       H  0.10225113  0.26686347  0.50065033     0.12380
H1812       H  0.09415624  0.32645067  0.49888123     0.12380
H1813       H  0.06165292  0.32237330  0.49942829     0.12380
H1814       H  0.06840365  0.26269965  0.50108285     0.12380
C1815       C  0.18303162  0.41763073  0.49988741    -0.13750
C1816       C  0.19913862  0.40665602  0.49960890     0.08400
C1817       C  0.21642993  0.41564276  0.49943285    -0.13750
C1818       C  0.21750563  0.43512353  0.49950894    -0.13750
C1819       C  0.20130865  0.44594947  0.49975819     0.08400
C1820       C  0.18410676  0.43693607  0.49995306    -0.13750
H1821       H  0.16941404  0.41148287  0.50007065     0.12380
H1822       H  0.22912960  0.40769685  0.49921276     0.12380
H1823       H  0.23098087  0.44168783  0.49935182     0.12380
H1824       H  0.17133293  0.44480428  0.50016226     0.12380
C1825       C  0.26243916  0.24894258  0.49968635    -0.13680
C1826       C  0.25064042  0.26073902  0.49964935    -0.15240
C1827       C  0.56115794  0.31511243  0.00067530    -0.13750
C1828       C  0.55334116  0.29723816  0.00068966     0.08400
C1829       C  0.56522189  0.28175383  0.00074936    -0.13750
C1830       C  0.58453939  0.28425574  0.00079016    -0.13750
C1831       C  0.59224933  0.30227343  0.00077274     0.08400
C1832       C  0.58020109  0.31758388  0.00071565    -0.13750
H1833       H  0.55253507  0.32742729  0.00062901     0.12380
H1834       H  0.55961991  0.26779447  0.00075847     0.12380
H1835       H  0.59335909  0.27210635  0.00083380     0.12380
H1836       H  0.58528989  0.33168938  0.00069715     0.12380
C1837       C  0.41205091  0.31598647  0.99983263    -0.13750
C1838       C  0.40019996  0.30052305  0.00051619     0.08400
C1839       C  0.40815844  0.28262674  0.00101734    -0.13750
C1840       C  0.42752801  0.28041003  0.00089916    -0.13750
C1841       C  0.43918972  0.29606767  0.00027768     0.08400
C1842       C  0.43111130  0.31379939  0.99972378    -0.13750
H1843       H  0.40681902  0.33002150  0.99935696     0.12380
H1844       H  0.39949118  0.27037465  0.00154207     0.12380
H1845       H  0.43333955  0.26654554  0.00133770     0.12380
H1846       H  0.43954101  0.32623966  0.99921099     0.12380
C1847       C  0.56122554  0.00257962  0.31275341    -0.13750
C1848       C  0.55343528  0.00310403  0.29488241     0.08400
C1849       C  0.56533265  0.00366831  0.27941458    -0.13750
C1850       C  0.58463644  0.00376271  0.28191710    -0.13750
C1851       C  0.59233592  0.00329164  0.29992104     0.08400
C1852       C  0.58028107  0.00266149  0.31522903    -0.13750
H1853       H  0.55257040  0.00210491  0.32504361     0.12380
H1854       H  0.55975016  0.00408158  0.26545685     0.12380
H1855       H  0.59345610  0.00425331  0.26976979     0.12380
H1856       H  0.58538374  0.00220539  0.32932202     0.12380
C1857       C  0.42767309  0.00328261  0.27711784    -0.13750
C1858       C  0.43929853  0.00344676  0.29280661     0.08400
C1859       C  0.43117164  0.00369845  0.31053029    -0.13750
C1860       C  0.41211993  0.00374299  0.31268622    -0.13750
C1861       C  0.40029670  0.00350769  0.29720457     0.08400
C1862       C  0.40828883  0.00331063  0.27930660    -0.13750
H1863       H  0.43352098  0.00309983  0.26325765     0.12380
H1864       H  0.43955413  0.00386637  0.32300487     0.12380
H1865       H  0.40687780  0.00397695  0.32672789     0.12380
H1866       H  0.39963785  0.00313724  0.26704035     0.12380
C1867       C  0.50136676  0.31429639  0.06555485    -0.13750
C1868       C  0.49734182  0.29691561  0.05768436     0.08400
C1869       C  0.49426327  0.28167991  0.06955313    -0.13750
C1870       C  0.49478416  0.28403642  0.08896304    -0.13750
C1871       C  0.49848532  0.30163072  0.09673431     0.08400
C1872       C  0.50200314  0.31659922  0.08470288    -0.13750
H1873       H  0.50412110  0.32629933  0.05687822     0.12380
H1874       H  0.49120087  0.26809194  0.06386576     0.12380
H1875       H  0.49205243  0.27217868  0.09781599     0.12380
H1876       H  0.50533130  0.33026877  0.08992637     0.12380
C1877       C  0.49748740  0.41910093  0.18759416    -0.13750
C1878       C  0.50166676  0.40716928  0.20245886     0.08400
C1879       C  0.50586441  0.41503023  0.21989720    -0.13750
C1880       C  0.50633888  0.43445878  0.22215546    -0.13750
C1881       C  0.50270397  0.44623382  0.20697238     0.08400
C1882       C  0.49807126  0.43825915  0.18979447    -0.13750
H1883       H  0.49370174  0.41377124  0.17408182     0.12380
H1884       H  0.50909601  0.40623173  0.23166659     0.12380
H1885       H  0.50987640  0.44023361  0.23558865     0.12380
H1886       H  0.49484992  0.44686529  0.17786193     0.12380
C1887       C  0.48935005  0.08770719  0.31241849    -0.13750
C1888       C  0.49653662  0.09932513  0.29850386     0.08400
C1889       C  0.50253615  0.09132938  0.28168770    -0.13750
C1890       C  0.50202587  0.07195487  0.27923763    -0.13750
C1891       C  0.49556645  0.06039968  0.29361007     0.08400
C1892       C  0.48892645  0.06854667  0.31002893    -0.13750
H1893       H  0.48411024  0.09335596  0.32532412     0.12380
H1894       H  0.50811047  0.09995681  0.27069253     0.12380
H1895       H  0.50718900  0.06600384  0.26641902     0.12380
H1896       H  0.48350785  0.06005043  0.32122018     0.12380
C1897       C  0.51210094  0.19167330  0.41585717    -0.13750
C1898       C  0.50455141  0.20553713  0.40442447     0.08400
C1899       C  0.49862382  0.22230726  0.41255702    -0.13750
C1900       C  0.49948798  0.22472431  0.43192014    -0.13750
C1901       C  0.50626570  0.21037621  0.44331686     0.08400
C1902       C  0.51290593  0.19404159  0.43500706    -0.13750
H1903       H  0.51729084  0.17880954  0.41006947     0.12380
H1904       H  0.49277961  0.23325702  0.40406100     0.12380
H1905       H  0.49428505  0.23746481  0.43799879     0.12380
H1906       H  0.51852980  0.18286354  0.44337506     0.12380
C1907       C  0.50009231  0.24710696  0.25671270    -0.13680
C1908       C  0.50008962  0.25894532  0.24488671    -0.15240
C1909       C  0.43962840  0.81539041  0.49873781    -0.13750
C1910       C  0.44746354  0.79753966  0.49965511     0.08400
C1911       C  0.43559688  0.78207531  0.50055282    -0.13750
C1912       C  0.41628286  0.78456850  0.50063709    -0.13750
C1913       C  0.40855224  0.80255951  0.49982506     0.08400
C1914       C  0.42057487  0.81785368  0.49880800    -0.13750
H1915       H  0.44824463  0.82768587  0.49797197     0.12380
H1916       H  0.44120881  0.76813715  0.50126217     0.12380
H1917       H  0.40748135  0.77243186  0.50142489     0.12380
H1918       H  0.41544299  0.83192700  0.49802525     0.12380
C1919       C  0.28266953  0.91420489  0.50042488    -0.13750
C1920       C  0.30076132  0.90681904  0.50026642     0.08400
C1921       C  0.31572436  0.91924296  0.50014104    -0.13750
C1922       C  0.31288337  0.93830186  0.50021829    -0.13750
C1923       C  0.29495963  0.94583927  0.50040711     0.08400
C1924       C  0.27978236  0.93359685  0.50049279    -0.13750
H1925       H  0.27077697  0.90507542  0.50051840     0.12380
H1926       H  0.32986305  0.91446265  0.49997285     0.12380
H1927       H  0.32499829  0.94716189  0.50012229     0.12380
H1928       H  0.26579566  0.93896669  0.50062675     0.12380
C1929       C  0.08882688  0.69371739  0.50065589    -0.13750
C1930       C  0.10070414  0.70912681  0.49968346     0.08400
C1931       C  0.09284473  0.72706037  0.49907775    -0.13750
C1932       C  0.07347910  0.72933236  0.49920000    -0.13750
C1933       C  0.06181569  0.71367752  0.49991108     0.08400
C1934       C  0.06983374  0.69594816  0.50071349    -0.13750
H1935       H  0.09395428  0.67967356  0.50143601     0.12380
H1936       H  0.10157905  0.73926033  0.49837337     0.12380
H1937       H  0.06768026  0.74319368  0.49861816     0.12380
H1938       H  0.06141350  0.68350559  0.50140641     0.12380
C1939       C  0.21627178  0.59085062  0.49825428    -0.13750
C1940       C  0.19906046  0.59981411  0.50001679     0.08400
C1941       C  0.18308237  0.58884499  0.50206624    -0.13750
C1942       C  0.18417309  0.56953556  0.50205334    -0.13750
C1943       C  0.20127773  0.56053472  0.50010331     0.08400
C1944       C  0.21737367  0.57137092  0.49831562    -0.13750
H1945       H  0.22885965  0.59882207  0.49663886     0.12380
H1946       H  0.16957505  0.59503220  0.50375426     0.12380
H1947       H  0.17150071  0.56165172  0.50361362     0.12380
H1948       H  0.23077021  0.56481297  0.49680659     0.12380
C1949       C  0.26210194  0.75751321  0.49979023    -0.13680
C1950       C  0.25024775  0.74576411  0.49979114    -0.15240
C1951       C  0.01747259  0.69574548  0.41549333    -0.13750
C1952       C  0.00728804  0.70723226  0.40352296     0.08400
C1953       C  0.99762062  0.72247990  0.41108095    -0.13750
C1954       C  0.99751315  0.72558428  0.43039982    -0.13750
C1955       C  0.00703833  0.71343448  0.44232946     0.08400
C1956       C  0.01732033  0.69878767  0.43460588    -0.13750
H1957       H  0.02543009  0.68418400  0.41012407     0.12380
H1958       H  0.98963827  0.73157053  0.40216206     0.12380
H1959       H  0.98942795  0.73693428  0.43604009     0.12380
H1960       H  0.02504989  0.68939516  0.44345894     0.12380
C1961       C  0.00033661  0.59135807  0.28005665    -0.13750
C1962       C  0.00777943  0.59876837  0.29658582     0.08400
C1963       C  0.01562400  0.58652333  0.30957173    -0.13750
C1964       C  0.01538625  0.56739907  0.30658247    -0.13750
C1965       C  0.00740945  0.55986351  0.29046127     0.08400
C1966       C  0.00019539  0.57202871  0.27698959    -0.13750
H1967       H  0.99419051  0.60041704  0.26974913     0.12380
H1968       H  0.02190790  0.59165086  0.32221180     0.12380
H1969       H  0.02137600  0.55842949  0.31708089     0.12380
H1970       H  0.99395500  0.56659149  0.26443742     0.12380
C1971       C  0.98527516  0.81375853  0.08505562    -0.13750
C1972       C  0.99411168  0.80072640  0.09655385     0.08400
C1973       C  0.00213345  0.78486737  0.08839173    -0.13750
C1974       C  0.00194597  0.78257502  0.06898938    -0.13750
C1975       C  0.99383920  0.79618176  0.05757351     0.08400
C1976       C  0.98522473  0.81156092  0.06585069    -0.13750
H1977       H  0.97850339  0.82585943  0.09083864     0.12380
H1978       H  0.00903531  0.77457865  0.09690925     0.12380
H1979       H  0.00867618  0.77058244  0.06290035     0.12380
H1980       H  0.97854735  0.82207748  0.05740541     0.12380
C1981       C  0.00054416  0.91524541  0.21882006    -0.13750
C1982       C  0.99375712  0.90719688  0.20233789     0.08400
C1983       C  0.98621704  0.91886512  0.18863356    -0.13750
C1984       C  0.98616871  0.93807042  0.19089949    -0.13750
C1985       C  0.99348048  0.94621585  0.20701182     0.08400
C1986       C  0.00035427  0.93464096  0.22116843    -0.13750
H1987       H  0.00643543  0.90663823  0.22965179     0.12380
H1988       H  0.98040357  0.91323824  0.17598331     0.12380
H1989       H  0.98046322  0.94660042  0.17988648     0.12380
H1990       H  0.00607254  0.94059077  0.23373958     0.12380
C1991       C  0.00225675  0.75897982  0.24421375    -0.13680
C1992       C  0.00200125  0.74696762  0.25591000    -0.15240
C1993       C  0.31287014  0.58859039  0.00327973    -0.13750
C1994       C  0.29736959  0.60016304  0.00106273     0.08400
C1995       C  0.27984832  0.59183992  0.99900024    -0.13750
C1996       C  0.27803814  0.57236941  0.99885939    -0.13750
C1997       C  0.29373507  0.56095787  0.00072915     0.08400
C1998       C  0.31108850  0.56936712  0.00305430    -0.13750
H1999       H  0.32656960  0.59422006  0.00525376     0.12380
H2000       H  0.26759324  0.60030338  0.99729119     0.12380
H2001       H  0.26445803  0.56627858  0.99710112     0.12380
H2002       H  0.32348063  0.56107335  0.00474551     0.12380
C2003       C  0.07949354  0.81716108  0.00314462    -0.13750
C2004       C  0.09134792  0.80181461  0.00115169     0.08400
C2005       C  0.08341892  0.78399690  0.99936361    -0.13750
C2006       C  0.06406862  0.78174946  0.99930067    -0.13750
C2007       C  0.05237488  0.79729688  0.00099120     0.08400
C2008       C  0.06040959  0.81494756  0.00301664    -0.13750
H2009       H  0.08478625  0.83108787  0.00486831     0.12380
H2010       H  0.09209904  0.77183908  0.99783172     0.12380
H2011       H  0.05829129  0.76794928  0.99776455     0.12380
H2012       H  0.05192472  0.82726645  0.00453251     0.12380
C2013       C  0.21439713  0.91507367  0.00040673    -0.13750
C2014       C  0.19654475  0.90719169  0.00103567     0.08400
C2015       C  0.18122972  0.91917407  0.00179690    -0.13750
C2016       C  0.18352356  0.93831924  0.00175839    -0.13750
C2017       C  0.20121803  0.94631679  0.00101128     0.08400
C2018       C  0.21672210  0.93451241  0.00040163    -0.13750
H2019       H  0.22653626  0.90629575  0.99983002     0.12380
H2020       H  0.16725206  0.91396568  0.00245661     0.12380
H2021       H  0.17120708  0.94687713  0.00232628     0.12380
H2022       H  0.23054776  0.94026552  0.99984444     0.12380
C2023       C  0.23935048  0.75905810  0.00108143    -0.13680
C2024       C  0.25140434  0.74749068  0.00108615    -0.15240
C2025       C  0.42760565  0.72698597  0.00040834    -0.13750
C2026       C  0.43923836  0.71130538  0.00100478     0.08400
C2027       C  0.43111702  0.69359558  0.00175342    -0.13750
C2028       C  0.41206242  0.69144236  0.00179796    -0.13750
C2029       C  0.40023672  0.70691252  0.00103097     0.08400
C2030       C  0.40822243  0.72479870  0.00041542    -0.13750
H2031       H  0.43344684  0.74083348  0.99985761     0.12380
H2032       H  0.43950778  0.68113075  0.00231845     0.12380
H2033       H  0.40681354  0.67742111  0.00247246     0.12380
H2034       H  0.39956502  0.73705660  0.99984368     0.12380
C2035       C  0.51685852  0.79010128  0.41252419    -0.13750
C2036       C  0.50180938  0.79936634  0.40434983     0.08400
C2037       C  0.48711857  0.80538571  0.41554250    -0.13750
C2038       C  0.48769505  0.80275827  0.43473507    -0.13750
C2039       C  0.50298336  0.79412345  0.44302254     0.08400
C2040       C  0.51747651  0.78753606  0.43184415    -0.13750
H2041       H  0.52841128  0.78556611  0.40406910     0.12380
H2042       H  0.47536204  0.81245209  0.40944312     0.12380
H2043       H  0.47641266  0.80791179  0.44321603     0.12380
H2044       H  0.52951123  0.78112082  0.43810774     0.12380
C2045       C  0.50398136  0.91521808  0.28238159    -0.13750
C2046       C  0.49585087  0.90722842  0.29828532     0.08400
C2047       C  0.48662592  0.91878403  0.31096018    -0.13750
C2048       C  0.48628222  0.93793113  0.30838278    -0.13750
C2049       C  0.49505505  0.94607661  0.29300628     0.08400
C2050       C  0.50355423  0.93457007  0.27973253    -0.13750
H2051       H  0.51117339  0.90661648  0.27236795     0.12380
H2052       H  0.47978112  0.91307744  0.32307188     0.12380
H2053       H  0.47931619  0.94644792  0.31864603     0.12380
H2054       H  0.51042870  0.94056300  0.26776226     0.12380
C2055       C  0.50214317  0.72320756  0.08887394    -0.13750
C2056       C  0.49601931  0.70648703  0.09700282     0.08400
C2057       C  0.48887152  0.69251283  0.08544403    -0.13750
C2058       C  0.48861175  0.69473087  0.06625418    -0.13750
C2059       C  0.49535499  0.71104938  0.05798216     0.08400
C2060       C  0.50177689  0.72549390  0.06945779    -0.13750
H2061       H  0.50768456  0.73425401  0.09742979     0.12380
H2062       H  0.48352434  0.67967618  0.09115386     0.12380
H2063       H  0.48321595  0.68348857  0.05783741     0.12380
H2064       H  0.50701315  0.73824787  0.06341952     0.12380
C2065       C  0.50680245  0.58811542  0.18672529    -0.13750
C2066       C  0.50339032  0.59986766  0.20192111     0.08400
C2067       C  0.50123852  0.59185153  0.21967247    -0.13750
C2068       C  0.50200189  0.57243702  0.22196270    -0.13750
C2069       C  0.50492397  0.56079916  0.20652497     0.08400
C2070       C  0.50751328  0.56895588  0.18897924    -0.13750
H2071       H  0.50898046  0.59358918  0.17290335     0.12380
H2072       H  0.49863757  0.60050021  0.23169822     0.12380
H2073       H  0.49999450  0.56654977  0.23567595     0.12380
H2074       H  0.51002020  0.56050365  0.17677706     0.12380
C2075       C  0.50095593  0.74789988  0.24513904    -0.13680
C2076       C  0.50113607  0.75975425  0.25695298    -0.15240
C2077       C  0.31551965  0.50352702  0.91601521    -0.13750
C2078       C  0.30051997  0.50346444  0.90363856     0.08400
C2079       C  0.28245088  0.50348549  0.91108842    -0.13750
C2080       C  0.27962176  0.50355903  0.93049162    -0.13750
C2081       C  0.29483338  0.50361548  0.94268494     0.08400
C2082       C  0.31273518  0.50360128  0.93508612    -0.13750
H2083       H  0.32964755  0.50352044  0.91118938     0.12380
H2084       H  0.27053371  0.50343876  0.90200078     0.12380
H2085       H  0.26564823  0.50356417  0.93590925     0.12380
H2086       H  0.32487293  0.50364163  0.94390557     0.12380
C2087       C  0.43939779  0.50408253  0.81291955    -0.13750
C2088       C  0.44735772  0.50400246  0.79510661     0.08400
C2089       C  0.43559549  0.50377418  0.77953702    -0.13750
C2090       C  0.41626446  0.50361891  0.78187594    -0.13750
C2091       C  0.40839092  0.50367346  0.79982055     0.08400
C2092       C  0.42031223  0.50391798  0.81523477    -0.13750
H2093       H  0.44793979  0.50423640  0.82528215     0.12380
H2094       H  0.44130550  0.50368458  0.76561541     0.12380
H2095       H  0.40756194  0.50342889  0.76965152     0.12380
H2096       H  0.41507770  0.50398263  0.82929557     0.12380
C2097       C  0.09255025  0.50008500  0.72356163    -0.13750
C2098       C  0.10048903  0.50471788  0.70629914     0.08400
C2099       C  0.08885168  0.51029873  0.69171590    -0.13750
C2100       C  0.06978699  0.51036425  0.69389803    -0.13750
C2101       C  0.06168222  0.50500315  0.71078868     0.08400
C2102       C  0.07321919  0.50024306  0.72580546    -0.13750
H2103       H  0.10119468  0.49580936  0.73507797     0.12380
H2104       H  0.09439659  0.51455396  0.67840728     0.12380
H2105       H  0.06135409  0.51449926  0.68215940     0.12380
H2106       H  0.06731303  0.49614253  0.73902655     0.12380
C2107       C  0.18276983  0.50341437  0.58535023    -0.13750
C2108       C  0.19879866  0.50292720  0.59641398     0.08400
C2109       C  0.21614990  0.50275196  0.58752493    -0.13750
C2110       C  0.21734876  0.50290617  0.56804179    -0.13750
C2111       C  0.20121770  0.50323700  0.55712661     0.08400
C2112       C  0.18396464  0.50353844  0.56605505    -0.13750
H2113       H  0.16911632  0.50373251  0.59142779     0.12380
H2114       H  0.22879056  0.50238103  0.59555028     0.12380
H2115       H  0.23086172  0.50269240  0.56154562     0.12380
H2116       H  0.17123651  0.50386545  0.55812780     0.12380
C2117       C  0.26174017  0.50317866  0.75423836    -0.13680
C2118       C  0.24986191  0.50318143  0.74249373    -0.15240
C2119       C  0.27979448  0.00266010  0.58877462    -0.13750
C2120       C  0.29741125  0.00373396  0.59708758     0.08400
C2121       C  0.31301359  0.00483437  0.58547807    -0.13750
C2122       C  0.31120538  0.00469020  0.56626304    -0.13750
C2123       C  0.29373708  0.00350346  0.55786690     0.08400
C2124       C  0.27796628  0.00256115  0.56930125    -0.13750
H2125       H  0.26744910  0.00181163  0.59724525     0.12380
H2126       H  0.32682914  0.00584510  0.59104244     0.12380
H2127       H  0.32368849  0.00554137  0.55796589     0.12380
H2128       H  0.26429984  0.00166246  0.56322876     0.12380
C2129       C  0.08348797  0.00335270  0.78094642    -0.13750
C2130       C  0.09137048  0.00349345  0.79887758     0.08400
C2131       C  0.07944913  0.00354402  0.81430940    -0.13750
C2132       C  0.06037816  0.00342587  0.81203731    -0.13750
C2133       C  0.05239326  0.00326393  0.79425192     0.08400
C2134       C  0.06414021  0.00324500  0.77864722    -0.13750
H2135       H  0.09220115  0.00331603  0.76871028     0.12380
H2136       H  0.08465256  0.00367324  0.82836578     0.12380
H2137       H  0.05186392  0.00347242  0.82443606     0.12380
H2138       H  0.05840904  0.00313257  0.76474632     0.12380
C2139       C  0.21441569  0.00364647  0.91216138    -0.13750
C2140       C  0.19655275  0.00366556  0.90428561     0.08400
C2141       C  0.18122220  0.00367167  0.91628209    -0.13750
C2142       C  0.18351866  0.00365494  0.93542596    -0.13750
C2143       C  0.20122735  0.00363352  0.94341575     0.08400
C2144       C  0.21674168  0.00363143  0.93160039    -0.13750
H2145       H  0.22657103  0.00364208  0.90337704     0.12380
H2146       H  0.16723001  0.00368991  0.91109252     0.12380
H2147       H  0.17118658  0.00366125  0.94399056     0.12380
H2148       H  0.23057643  0.00361724  0.93734403     0.12380
C2149       C  0.23939829  0.00369741  0.75610869    -0.13680
C2150       C  0.25143405  0.00369278  0.74451623    -0.15240
C2151       C  0.99765581  0.31293740  0.58392920    -0.13750
C2152       C  0.00485094  0.29943380  0.59599164     0.08400
C2153       C  0.01066413  0.28229217  0.58849197    -0.13750
C2154       C  0.00999018  0.27914125  0.56917571    -0.13750
C2155       C  0.00348150  0.29310274  0.55714768     0.08400
C2156       C  0.99698691  0.30982566  0.56485189    -0.13750
H2157       H  0.99258128  0.32607810  0.58917482     0.12380
H2158       H  0.01623784  0.27157721  0.59745733     0.12380
H2159       H  0.01510392  0.26612492  0.56363014     0.12380
H2160       H  0.99157081  0.32076484  0.55604268     0.12380
C2161       C  0.99715825  0.41444769  0.71935294    -0.13750
C2162       C  0.00676513  0.40682148  0.70410749     0.08400
C2163       C  0.01718739  0.41868895  0.69271360    -0.13750
C2164       C  0.01738114  0.43779006  0.69588864    -0.13750
C2165       C  0.00720190  0.44559109  0.71056755     0.08400
C2166       C  0.99737745  0.43374453  0.72257452    -0.13750
H2167       H  0.98898102  0.40560065  0.72835208     0.12380
H2168       H  0.02507669  0.41323814  0.68113826     0.12380
H2169       H  0.02528277  0.44657952  0.68657181     0.12380
H2170       H  0.98931213  0.43945079  0.73390908     0.12380
C2171       C  0.98746699  0.08779646  0.81227282    -0.13750
C2172       C  0.99486607  0.09937546  0.79841776     0.08400
C2173       C  0.00132642  0.09126275  0.78183035    -0.13750
C2174       C  0.00100201  0.07185911  0.77954010    -0.13750
C2175       C  0.99430511  0.06036469  0.79385708     0.08400
C2176       C  0.98726900  0.06859567  0.81005761    -0.13750
H2177       H  0.98187605  0.09350091  0.82500102     0.12380
H2178       H  0.00708345  0.09982823  0.77088273     0.12380
H2179       H  0.00648051  0.06583914  0.76688656     0.12380
H2180       H  0.98166985  0.06013381  0.82118547     0.12380
C2181       C  0.00418774  0.19384244  0.93502630    -0.13750
C2182       C  0.99721068  0.21013441  0.94313614     0.08400
C2183       C  0.99089028  0.22452487  0.93151729    -0.13750
C2184       C  0.99091831  0.22223882  0.91210552    -0.13750
C2185       C  0.99731159  0.20556602  0.90412804     0.08400
C2186       C  0.00429221  0.19161512  0.91583188    -0.13750
H2187       H  0.00949783  0.18264289  0.94357119     0.12380
H2188       H  0.98545904  0.23724570  0.93743245     0.12380
H2189       H  0.98547646  0.23324545  0.90341430     0.12380
H2190       H  0.00980771  0.17881451  0.91021136     0.12380
C2191       C  0.00172186  0.24730627  0.75591247    -0.13680
C2192       C  0.00249618  0.25908533  0.74400727    -0.15240
C2193       C  0.43110934  0.00183054  0.69058786    -0.13750
C2194       C  0.43923127  0.00327345  0.70824929     0.08400
C2195       C  0.42759969  0.00452216  0.72389696    -0.13750
C2196       C  0.40821732  0.00454745  0.72171300    -0.13750
C2197       C  0.40023168  0.00329254  0.70386638     0.08400
C2198       C  0.41205274  0.00179952  0.68844094    -0.13750
H2199       H  0.43950527  0.00069451  0.67815920     0.12380
H2200       H  0.43344239  0.00561387  0.73770650     0.12380
H2201       H  0.39955835  0.00567803  0.73393810     0.12380
H2202       H  0.40679066  0.00054887  0.67446586     0.12380
C2203       C  0.50592160  0.31433069  0.91612968    -0.13750
C2204       C  0.49917789  0.30042905  0.90424974     0.08400
C2205       C  0.49265675  0.28370805  0.91208088    -0.13750
C2206       C  0.49227486  0.28134718  0.93149594    -0.13750
C2207       C  0.49831361  0.29573081  0.94324721     0.08400
C2208       C  0.50542064  0.31204956  0.93529373    -0.13750
H2209       H  0.51157230  0.32715521  0.91070335     0.12380
H2210       H  0.48742234  0.27270610  0.90327724     0.12380
H2211       H  0.48678856  0.26858955  0.93729662     0.12380
H2212       H  0.51056501  0.32323527  0.94394367     0.12380
C2213       C  0.50591267  0.41496048  0.78150155    -0.13750
C2214       C  0.50163111  0.40713610  0.79894754     0.08400
C2215       C  0.49722758  0.41908595  0.81372079    -0.13750
C2216       C  0.49767080  0.43824842  0.81142393    -0.13750
C2217       C  0.50240730  0.44619126  0.79424040     0.08400
C2218       C  0.50626703  0.43438068  0.77915068    -0.13750
H2219       H  0.50932518  0.40613987  0.76980834     0.12380
H2220       H  0.49337398  0.41374900  0.82722965     0.12380
H2221       H  0.49428956  0.44688264  0.82328280     0.12380
H2222       H  0.50990835  0.44012678  0.76571871     0.12380
C2223       C  0.50433420  0.09145753  0.71933866    -0.13750
C2224       C  0.49594872  0.09966675  0.70370520     0.08400
C2225       C  0.48646376  0.08831058  0.69104703    -0.13750
C2226       C  0.48612884  0.06912456  0.69335896    -0.13750
C2227       C  0.49515737  0.06076743  0.70845451     0.08400
C2228       C  0.50390871  0.07207690  0.72172541    -0.13750
H2229       H  0.51174491  0.09991148  0.72930759     0.12380
H2230       H  0.47944706  0.09421330  0.67913701     0.12380
H2231       H  0.47897420  0.06074945  0.68312019     0.12380
H2232       H  0.51098166  0.06590889  0.73347787     0.12380
C2233       C  0.50742955  0.22167249  0.58880105    -0.13750
C2234       C  0.50046553  0.20508868  0.59652386     0.08400
C2235       C  0.49349539  0.19136939  0.58456112    -0.13750
C2236       C  0.49416849  0.19371137  0.56540180    -0.13750
C2237       C  0.50167285  0.20991083  0.55758224     0.08400
C2238       C  0.50797716  0.22409665  0.56941969    -0.13750
H2239       H  0.51287573  0.23252082  0.59766357     0.12380
H2240       H  0.48754709  0.17865275  0.58992149     0.12380
H2241       H  0.48885108  0.18268580  0.55665290     0.12380
H2242       H  0.51380032  0.23674458  0.56370917     0.12380
C2243       C  0.50087595  0.24737907  0.74423550    -0.13680
C2244       C  0.50014145  0.25919941  0.75605233    -0.15240
C2245       C  0.00088183  0.72284083  0.58850913    -0.13750
C2246       C  0.00719343  0.70583220  0.59593438     0.08400
C2247       C  0.01371029  0.69217521  0.58363600    -0.13750
C2248       C  0.01329075  0.69503079  0.56450511    -0.13750
C2249       C  0.00646368  0.71168919  0.55696029     0.08400
C2250       C  0.00056921  0.72577236  0.56914964    -0.13750
H2251       H  0.99579548  0.73369256  0.59758652     0.12380
H2252       H  0.01912942  0.67911024  0.58870262     0.12380
H2253       H  0.01829617  0.68401492  0.55555364     0.12380
H2254       H  0.99528296  0.73877526  0.56372838     0.12380
C2255       C  0.99763546  0.59153071  0.71973020    -0.13750
C2256       C  0.00649548  0.59904516  0.70396447     0.08400
C2257       C  0.01563437  0.58694393  0.69172957    -0.13750
C2258       C  0.01526779  0.56780426  0.69462888    -0.13750
C2259       C  0.00586882  0.56016663  0.70991274     0.08400
C2260       C  0.99736939  0.57219210  0.72271930    -0.13750
H2261       H  0.99046150  0.60051674  0.72941129     0.12380
H2262       H  0.02299396  0.59222505  0.67972953     0.12380
H2263       H  0.02225607  0.55888596  0.68472727     0.12380
H2264       H  0.99001864  0.56662617  0.73460818     0.12380
C2265       C  0.98658979  0.81516502  0.91573921    -0.13750
C2266       C  0.99405219  0.80140838  0.90408965     0.08400
C2267       C  0.00093276  0.78497253  0.91218288    -0.13750
C2268       C  0.00090256  0.78272385  0.93159807    -0.13750
C2269       C  0.99411689  0.79694404  0.94313867     0.08400
C2270       C  0.98671533  0.81300546  0.93495420    -0.13750
H2271       H  0.98069469  0.82777658  0.91008956     0.12380
H2272       H  0.00675894  0.77409821  0.90359072     0.12380
H2273       H  0.00665901  0.77017706  0.93758351     0.12380
H2274       H  0.98104188  0.82404871  0.94346173     0.12380
C2275       C  0.98510941  0.91838248  0.81036133    -0.13750
C2276       C  0.99408724  0.90691380  0.79739993     0.08400
C2277       C  0.00231002  0.91512332  0.78166062    -0.13750
C2278       C  0.00216846  0.93453794  0.77942165    -0.13750
C2279       C  0.99390964  0.94591925  0.79296384     0.08400
C2280       C  0.98510748  0.93759930  0.80822034    -0.13750
H2281       H  0.97818669  0.91256061  0.82236896     0.12380
H2282       H  0.00932803  0.90662998  0.77143390     0.12380
H2283       H  0.00904758  0.94066354  0.76752218     0.12380
H2284       H  0.97831376  0.94602015  0.81867828     0.12380
C2285       C  0.00193842  0.75889357  0.75605925    -0.13680
C2286       C  0.00173625  0.74708148  0.74415857    -0.15240
C2287       C  0.71796420  0.00269135  0.58930257    -0.13750
C2288       C  0.69984075  0.00318362  0.59659668     0.08400
C2289       C  0.68492609  0.00349644  0.58414519    -0.13750
C2290       C  0.68784671  0.00325469  0.56511889    -0.13750
C2291       C  0.70580511  0.00271058  0.55767096     0.08400
C2292       C  0.72093339  0.00246627  0.56994302    -0.13750
H2293       H  0.72981509  0.00245324  0.59847234     0.12380
H2294       H  0.67077185  0.00393511  0.58887777     0.12380
H2295       H  0.67576962  0.00351492  0.55621910     0.12380
H2296       H  0.73493847  0.00206966  0.56462205     0.12380
C2297       C  0.58026607  0.00214853  0.68577951    -0.13750
C2298       C  0.59230689  0.00330904  0.70105467     0.08400
C2299       C  0.58459005  0.00432053  0.71903613    -0.13750
C2300       C  0.56528281  0.00431609  0.72154134    -0.13750
C2301       C  0.55339582  0.00333250  0.70610073     0.08400
C2302       C  0.56120192  0.00218726  0.68825604    -0.13750
H2303       H  0.58539444  0.00117527  0.67171120     0.12380
H2304       H  0.59339701  0.00521677  0.73115301     0.12380
H2305       H  0.55968714  0.00519144  0.73548203     0.12380
H2306       H  0.55255383  0.00129880  0.67599961     0.12380
C2307       C  0.77516757  0.00679143  0.91191388    -0.13750
C2308       C  0.79244114  0.00205716  0.90415895     0.08400
C2309       C  0.80673312  0.99639974  0.91605748    -0.13750
C2310       C  0.80422005  0.99622638  0.93518099    -0.13750
C2311       C  0.78729939  0.00161374  0.94310374     0.08400
C2312       C  0.77259912  0.00655323  0.93130343    -0.13750
H2313       H  0.76384833  0.01113927  0.90308390     0.12380
H2314       H  0.82003881  0.99211766  0.91068781     0.12380
H2315       H  0.81574278  0.99197424  0.94381245     0.12380
H2316       H  0.75938239  0.01070496  0.93704806     0.12380
C2317       C  0.90700795  0.00354880  0.78117383    -0.13750
C2318       C  0.89922881  0.00345409  0.79917078     0.08400
C2319       C  0.91122881  0.00315326  0.81450671    -0.13750
C2320       C  0.93027470  0.00303749  0.81209559    -0.13750
C2321       C  0.93817631  0.00319632  0.79425199     0.08400
C2322       C  0.92634888  0.00342258  0.77872961    -0.13750
H2323       H  0.89822429  0.00376943  0.76900674     0.12380
H2324       H  0.90610396  0.00299494  0.82860325     0.12380
H2325       H  0.93883280  0.00283299  0.82444689     0.12380
H2326       H  0.93200961  0.00353648  0.76478896     0.12380
C2327       C  0.75151848  0.00378433  0.75646775    -0.13680
C2328       C  0.73958251  0.00370358  0.74482377    -0.15240
C2329       C  0.68485133  0.58695505  0.99879855    -0.13750
C2330       C  0.69973708  0.59937847  0.00013110     0.08400
C2331       C  0.71783624  0.59206731  0.00097412    -0.13750
C2332       C  0.72080272  0.57270863  0.00067615    -0.13750
C2333       C  0.70569470  0.56045390  0.99953553     0.08400
C2334       C  0.68776822  0.56792588  0.99852495    -0.13750
H2335       H  0.67073036  0.59172403  0.99791526     0.12380
H2336       H  0.72966415  0.60122328  0.00198383     0.12380
H2337       H  0.73478119  0.56737191  0.00145961     0.12380
H2338       H  0.67571336  0.55904007  0.99753232     0.12380
C2339       C  0.58019873  0.68873916  0.00057499    -0.13750
C2340       C  0.59229146  0.70401874  0.00081641     0.08400
C2341       C  0.58463083  0.72205283  0.00094029    -0.13750
C2342       C  0.56532854  0.72461019  0.00086771    -0.13750
C2343       C  0.55339431  0.70916938  0.00067302     0.08400
C2344       C  0.56114883  0.69126866  0.00051154    -0.13750
H2345       H  0.58526539  0.67462371  0.00042572     0.12380
H2346       H  0.59347755  0.73417932  0.00112468     0.12380
H2347       H  0.55977677  0.73859005  0.00099404     0.12380
H2348       H  0.55247118  0.67899523  0.00033777     0.12380
C2349       C  0.90706051  0.78402647  0.00023225    -0.13750
C2350       C  0.89921722  0.80197920  0.00076609     0.08400
C2351       C  0.91115939  0.81736383  0.00130416    -0.13750
C2352       C  0.93021533  0.81503985  0.00118256    -0.13750
C2353       C  0.93817626  0.79724113  0.00055958     0.08400
C2354       C  0.92640766  0.78167082  0.00013655    -0.13750
H2355       H  0.89832043  0.77182574  0.99982418     0.12380
H2356       H  0.90598196  0.83142487  0.00184449     0.12380
H2357       H  0.93873451  0.82741970  0.00159310     0.12380
H2358       H  0.93211847  0.76776386  0.99968130     0.12380
C2359       C  0.77516038  0.91473509  0.99989649    -0.13750
C2360       C  0.79307654  0.90709684  0.00131661     0.08400
C2361       C  0.80816193  0.91924152  0.00303406    -0.13750
C2362       C  0.80561827  0.93833458  0.00300819    -0.13750
C2363       C  0.78788488  0.94611131  0.00133692     0.08400
C2364       C  0.77257445  0.93413770  0.99991777    -0.13750
H2365       H  0.76319434  0.90579901  0.99859294     0.12380
H2366       H  0.82214487  0.91419208  0.00444886     0.12380
H2367       H  0.81778434  0.94702786  0.00429258     0.12380
H2368       H  0.75873005  0.93972922  0.99864675     0.12380
C2369       C  0.75148372  0.75922812  0.00103301    -0.13680
C2370       C  0.73956223  0.74756887  0.00101530    -0.15240
C2371       C  0.68822178  0.50238464  0.91448636    -0.13750
C2372       C  0.70393878  0.50289843  0.90297387     0.08400
C2373       C  0.72151283  0.50333277  0.91143342    -0.13750
C2374       C  0.72318845  0.50335881  0.93093526    -0.13750
C2375       C  0.70730746  0.50295980  0.94226470     0.08400
C2376       C  0.68988154  0.50244055  0.93372268    -0.13750
H2377       H  0.67441638  0.50190357  0.90883636     0.12380
H2378       H  0.73394194  0.50372443  0.90305170     0.12380
H2379       H  0.73683170  0.50374485  0.93711214     0.12380
H2380       H  0.67731123  0.50206149  0.94192164     0.12380
C2381       C  0.58896553  0.50118858  0.81287552    -0.13750
C2382       C  0.60062782  0.50254868  0.79730323     0.08400
C2383       C  0.59245791  0.50363626  0.77953847    -0.13750
C2384       C  0.57306411  0.50359414  0.77756451    -0.13750
C2385       C  0.56158103  0.50247185  0.79333757     0.08400
C2386       C  0.56986873  0.50118980  0.81093007    -0.13750
H2387       H  0.59439710  0.50006642  0.82680057     0.12380
H2388       H  0.60098367  0.50467028  0.76720918     0.12380
H2389       H  0.56709246  0.50457507  0.76380066     0.12380
H2390       H  0.56157359  0.50019012  0.82343903     0.12380
C2391       C  0.82516452  0.50004425  0.58424443    -0.13750
C2392       C  0.80945701  0.50015122  0.59578758     0.08400
C2393       C  0.79186177  0.50039717  0.58739369    -0.13750
C2394       C  0.79010934  0.50052149  0.56794222    -0.13750
C2395       C  0.80592406  0.50038208  0.55654754     0.08400
C2396       C  0.82342074  0.50014625  0.56498392    -0.13750
H2397       H  0.83898177  0.49992299  0.58991423     0.12380
H2398       H  0.77943944  0.50047844  0.59578541     0.12380
H2399       H  0.77642395  0.50071156  0.56184748     0.12380
H2400       H  0.83593241  0.50008331  0.55668792     0.12380
C2401       C  0.91711002  0.50824052  0.72193927    -0.13750
C2402       C  0.90929295  0.49980388  0.70614296     0.08400
C2403       C  0.92097522  0.49084111  0.69338836    -0.13750
C2404       C  0.94004651  0.49116059  0.69571151    -0.13750
C2405       C  0.94799601  0.50027251  0.71095409     0.08400
C2406       C  0.93639845  0.50842880  0.72436539    -0.13750
H2407       H  0.90841039  0.51522568  0.73200841     0.12380
H2408       H  0.91542869  0.48372876  0.68137049     0.12380
H2409       H  0.94864314  0.48440858  0.68537990     0.12380
H2410       H  0.94225060  0.51550959  0.73627107     0.12380
C2411       C  0.76062415  0.50266124  0.74266223    -0.13680
C2412       C  0.74872591  0.50243782  0.75442206    -0.15240
C2413       C  0.72339878  0.93362961  0.50073310    -0.13750
C2414       C  0.70752502  0.94495678  0.50023131     0.08400
C2415       C  0.69010164  0.93641138  0.49956425    -0.13750
C2416       C  0.68843702  0.91717621  0.49946705    -0.13750
C2417       C  0.70414423  0.90566374  0.50008731     0.08400
C2418       C  0.72171763  0.91412545  0.50066949    -0.13750
H2419       H  0.73704160  0.93981028  0.50123025     0.12380
H2420       H  0.67753831  0.94460549  0.49909394     0.12380
H2421       H  0.67463086  0.91152911  0.49887159     0.12380
H2422       H  0.73413726  0.90574508  0.50114335     0.12380
C2423       C  0.58894953  0.81572825  0.50018478    -0.13750
C2424       C  0.60065795  0.80013539  0.50033449     0.08400
C2425       C  0.59253422  0.78231283  0.50045761    -0.13750
C2426       C  0.57315258  0.78028385  0.50043835    -0.13750
C2427       C  0.56162925  0.79605525  0.50027774     0.08400
C2428       C  0.56985841  0.81372312  0.50016315    -0.13750
H2429       H  0.59432544  0.82971786  0.50005163     0.12380
H2430       H  0.60108263  0.76996650  0.50057905     0.12380
H2431       H  0.56722189  0.76646371  0.50052277     0.12380
H2432       H  0.56152491  0.82623843  0.50004879     0.12380
C2433       C  0.82396107  0.58653094  0.50324479    -0.13750
C2434       C  0.80847054  0.59776781  0.49954787     0.08400
C2435       C  0.79128847  0.58910700  0.49648576    -0.13750
C2436       C  0.78978485  0.56964032  0.49678397    -0.13750
C2437       C  0.80544956  0.55851845  0.50010671     0.08400
C2438       C  0.82248366  0.56723507  0.50345212    -0.13750
H2439       H  0.83737233  0.59252736  0.50605290     0.12380
H2440       H  0.77908022  0.59730944  0.49357968     0.12380
H2441       H  0.77645780  0.56330729  0.49414522     0.12380
H2442       H  0.83479872  0.55912839  0.50625313     0.12380
C2443       C  0.91670383  0.72430623  0.49871488    -0.13750
C2444       C  0.90915510  0.70624278  0.49921158     0.08400
C2445       C  0.92130500  0.69103133  0.50011527    -0.13750
C2446       C  0.94030152  0.69362418  0.50026363    -0.13750
C2447       C  0.94796697  0.71152504  0.49959338     0.08400
C2448       C  0.93599729  0.72693552  0.49891642    -0.13750
H2449       H  0.90777998  0.73636422  0.49804812     0.12380
H2450       H  0.91635499  0.67689722  0.50074207     0.12380
H2451       H  0.94900693  0.68138275  0.50091150     0.12380
H2452       H  0.94151324  0.74092040  0.49842560     0.12380
C2453       C  0.76036363  0.74508479  0.49883131    -0.13680
C2454       C  0.74854708  0.75692331  0.49902154    -0.15240
C2455       C  0.48943104  0.69175552  0.91608255    -0.13750
C2456       C  0.49602984  0.70593405  0.90441633     0.08400
C2457       C  0.50164873  0.72286683  0.91245396    -0.13750
C2458       C  0.50129339  0.72520469  0.93186335    -0.13750
C2459       C  0.49538057  0.71060362  0.94344211     0.08400
C2460       C  0.48917700  0.69403041  0.93526755    -0.13750
H2461       H  0.48448716  0.67873034  0.91046798     0.12380
H2462       H  0.50676607  0.73408094  0.90382481     0.12380
H2463       H  0.50610848  0.73815386  0.93781039     0.12380
H2464       H  0.48418772  0.68263322  0.94375374     0.12380
C2465       C  0.50025495  0.59174745  0.78135098    -0.13750
C2466       C  0.50389596  0.59977908  0.79882955     0.08400
C2467       C  0.50898050  0.58811089  0.81361226    -0.13750
C2468       C  0.50972828  0.56895238  0.81130355    -0.13750
C2469       C  0.50549932  0.56075805  0.79411156     0.08400
C2470       C  0.50105578  0.57234637  0.77900049    -0.13750
H2471       H  0.49635140  0.60036909  0.76965515     0.12380
H2472       H  0.51238840  0.59368485  0.82713810     0.12380
H2473       H  0.51350051  0.56051381  0.82319071     0.12380
H2474       H  0.49776382  0.56641750  0.76557095     0.12380
C2475       C  0.49499682  0.81638818  0.58409556    -0.13750
C2476       C  0.50102824  0.80223047  0.59610686     0.08400
C2477       C  0.50730884  0.78539185  0.58837759    -0.13750
C2478       C  0.50801226  0.78306483  0.56899590    -0.13750
C2479       C  0.50257577  0.79760162  0.55711997     0.08400
C2480       C  0.49585798  0.81414369  0.56491690    -0.13750
H2481       H  0.48959876  0.82935269  0.58942137     0.12380
H2482       H  0.51203798  0.77420084  0.59724597     0.12380
H2483       H  0.51319019  0.77013083  0.56331754     0.12380
H2484       H  0.49120133  0.82546144  0.55614481     0.12380
C2485       C  0.50216862  0.91549975  0.71929132    -0.13750
C2486       C  0.49584009  0.90747045  0.70262225     0.08400
C2487       C  0.48854455  0.91909476  0.68876664    -0.13750
C2488       C  0.48833644  0.93827877  0.69106151    -0.13750
C2489       C  0.49527341  0.94643632  0.70733833     0.08400
C2490       C  0.50184754  0.93488717  0.72165683    -0.13750
H2491       H  0.50784656  0.90688657  0.73023521     0.12380
H2492       H  0.48306509  0.91343673  0.67597544     0.12380
H2493       H  0.48282877  0.94678099  0.67992599     0.12380
H2494       H  0.50723944  0.94084938  0.73436685     0.12380
C2495       C  0.50149946  0.75953867  0.74426070    -0.13680
C2496       C  0.50117394  0.74774966  0.75615850    -0.15240
loop_ 
_geom_bond_atom_site_label_1 
_geom_bond_atom_site_label_2 
_geom_bond_distance 
_geom_bond_site_symmetry_2 
_ccdc_geom_bond_type 
N1            N2   1.319       .  A
N1            C5   1.349       .  A
N1           Cu9   2.076       .  S
N2            C3   1.338       .  A
N2           Cu8   2.057       .  S
C3            C4   1.384       .  A
C3            H6   1.081       .  S
C4            C5   1.390       .  A
C4         C2486   1.482       .  S
C5            H7   1.082       .  S
Cu8          N11   2.057       .  S
Cu9          N19   2.079       .  S
Cu10         N12   2.079       .  S
Cu10         N18   2.081       .  S
N11          N12   1.319       .  A
N11          C15   1.338       .  A
N12          C13   1.350       .  A
C13          C14   1.391       .  A
C13          H16   1.081       .  S
C14          C15   1.385       .  A
C14        C2476   1.484       .  S
C15          H17   1.081       .  S
N18          N19   1.326       .  A
N18          C22   1.346       .  A
N19          C20   1.345       .  A
C20          C21   1.377       .  A
C20          H23   1.082       .  S
C21          C22   1.378       .  A
C21        C2495   1.435       .  S
C22          H24   1.082       .  S
N25          N26   1.319       .  A
N25          C29   1.350       .  A
N25         Cu33   2.079       .  S
N26          C27   1.339       .  A
N26         Cu32   2.060       .  S
C27          C28   1.385       .  A
C27          H30   1.081       .  S
C28          C29   1.391       .  A
C28        C2456   1.484       .  S
C29          H31   1.082       .  S
Cu32         N35   2.060       .  S
Cu33         N43   2.081       .  S
Cu34         N36   2.077       .  S
Cu34         N42   2.080       .  S
N35          N36   1.319       .  A
N35          C39   1.339       .  A
N36          C37   1.350       .  A
C37          C38   1.391       .  A
C37          H40   1.082       .  S
C38          C39   1.386       .  A
C38        C2466   1.485       .  S
C39          H41   1.081       .  S
N42          N43   1.327       .  A
N42          C46   1.345       .  A
N43          C44   1.345       .  A
C44          C45   1.378       .  A
C44          H47   1.082       .  S
C45          C46   1.377       .  A
C45        C2496   1.435       .  S
C46          H48   1.082       .  S
N49          N50   1.318       .  A
N49          C53   1.351       .  A
N49         Cu57   2.088       .  S
N50          C51   1.338       .  A
N50         Cu56   2.048       .  S
C51          C52   1.384       .  A
C51          H54   1.081       .  S
C52          C53   1.394       .  A
C52        C2434   1.487       .  S
C53          H55   1.081       .  S
Cu56         N59   2.048       .  S
Cu57         N67   2.091       .  S
Cu58         N60   2.079       .  S
Cu58         N66   2.083       .  S
N59          N60   1.317       .  A
N59          C63   1.335       .  A
N60          C61   1.351       .  A
C61          C62   1.394       .  A
C61          H64   1.081       .  S
C62          C63   1.386       .  A
C62        C2444   1.488       .  S
C63          H65   1.079       .  S
N66          N67   1.328       .  A
N66          C70   1.345       .  A
N67          C68   1.347       .  A
C68          C69   1.379       .  A
C68          H71   1.082       .  S
C69          C70   1.377       .  A
C69        C2453   1.438       .  S
C70          H72   1.082       .  S
N73          N74   1.318       .  A
N73          C77   1.352       .  A
N73         Cu81   2.088       .  S
N74          C75   1.336       .  A
N74         Cu80   2.050       .  S
C75          C76   1.386       .  A
C75          H78   1.079       .  S
C76          C77   1.396       .  A
C76        C2417   1.491       .  S
C77          H79   1.081       .  S
Cu80         N83   2.050       .  S
Cu81         N91   2.092       .  S
Cu82         N84   2.083       .  S
Cu82         N90   2.087       .  S
N83          N84   1.317       .  A
N83          C87   1.336       .  A
N84          C85   1.352       .  A
C85          C86   1.395       .  A
C85          H88   1.081       .  S
C86          C87   1.387       .  A
C86        C2424   1.491       .  S
C87          H89   1.080       .  S
N90          N91   1.329       .  A
N90          C94   1.346       .  A
N91          C92   1.347       .  A
C92          C93   1.379       .  A
C92          H95   1.082       .  S
C93          C94   1.377       .  A
C93        C2454   1.438       .  S
C94          H96   1.082       .  S
N97          N98   1.318       .  A
N97         C101   1.350       .  A
N97        Cu105   2.085       .  S
N98          C99   1.338       .  A
N98        Cu104   2.053       .  S
C99         C100   1.386       .  A
C99         H102   1.080       .  S
C100        C101   1.394       .  A
C100       C2392   1.489       .  S
C101        H103   1.081       .  S
Cu104       N107   2.052       .  S
Cu105       N115   2.088       .  S
Cu106       N108   2.078       .  S
Cu106       N114   2.081       .  S
N107        N108   1.319       .  A
N107        C111   1.337       .  A
N108        C109   1.350       .  A
C109        C110   1.390       .  A
C109        H112   1.082       .  S
C110        C111   1.383       .  A
C110       C2402   1.480       .  S
C111        H113   1.082       .  S
N114        N115   1.327       .  A
N114        C118   1.345       .  A
N115        C116   1.347       .  A
C116        C117   1.379       .  A
C116        H119   1.082       .  S
C117        C118   1.377       .  A
C117       C2411   1.438       .  S
C118        H120   1.082       .  S
N121        N122   1.318       .  A
N121        C125   1.352       .  A
N121       Cu129   2.087       .  S
N122        C123   1.336       .  A
N122       Cu128   2.051       .  S
C123        C124   1.386       .  A
C123        H126   1.079       .  S
C124        C125   1.396       .  A
C124       C2372   1.491       .  S
C125        H127   1.081       .  S
Cu128       N131   2.051       .  S
Cu129       N139   2.091       .  S
Cu130       N132   2.084       .  S
Cu130       N138   2.088       .  S
N131        N132   1.317       .  A
N131        C135   1.336       .  A
N132        C133   1.352       .  A
C133        C134   1.395       .  A
C133        H136   1.081       .  S
C134        C135   1.386       .  A
C134       C2382   1.491       .  S
C135        H137   1.080       .  S
N138        N139   1.329       .  A
N138        C142   1.346       .  A
N139        C140   1.347       .  A
C140        C141   1.379       .  A
C140        H143   1.082       .  S
C141        C142   1.377       .  A
C141       C2412   1.438       .  S
C142        H144   1.082       .  S
N145        N146   1.318       .  A
N145        C149   1.351       .  A
N145       Cu153   2.079       .  S
N146        C147   1.338       .  A
N146       Cu152   2.060       .  S
C147        C148   1.388       .  A
C147        H150   1.080       .  S
C148        C149   1.393       .  A
C148       C2350   1.491       .  S
C149        H151   1.081       .  S
Cu152       N155   2.059       .  S
Cu153       N163   2.082       .  S
Cu154       N156   2.069       .  S
Cu154       N162   2.073       .  S
N155        N156   1.318       .  A
N155        C159   1.337       .  A
N156        C157   1.349       .  A
C157        C158   1.391       .  A
C157        H160   1.081       .  S
C158        C159   1.388       .  A
C158       C2360   1.487       .  S
C159        H161   1.080       .  S
N162        N163   1.327       .  A
N162        C166   1.344       .  A
N163        C164   1.345       .  A
C164        C165   1.378       .  A
C164        H167   1.082       .  S
C165        C166   1.375       .  A
C165       C2369   1.432       .  S
C166        H168   1.082       .  S
N169        N170   1.318       .  A
N169        C173   1.349       .  A
N169       Cu177   2.068       .  S
N170        C171   1.337       .  A
N170       Cu176   2.063       .  S
C171        C172   1.389       .  A
C171        H174   1.080       .  S
C172        C173   1.391       .  A
C172       C2330   1.488       .  S
C173        H175   1.081       .  S
Cu176       N179   2.063       .  S
Cu177       N187   2.071       .  S
Cu178       N180   2.078       .  S
Cu178       N186   2.081       .  S
N179        N180   1.319       .  A
N179        C183   1.339       .  A
N180        C181   1.350       .  A
C181        C182   1.392       .  A
C181        H184   1.081       .  S
C182        C183   1.388       .  A
C182       C2340   1.490       .  S
C183        H185   1.080       .  S
N186        N187   1.327       .  A
N186        C190   1.345       .  A
N187        C188   1.343       .  A
C188        C189   1.375       .  A
C188        H191   1.082       .  S
C189        C190   1.378       .  A
C189       C2370   1.432       .  S
C190        H192   1.082       .  S
N193        N194   1.319       .  A
N193        C197   1.351       .  A
N193       Cu201   2.080       .  S
N194        C195   1.338       .  A
N194       Cu200   2.062       .  S
C195        C196   1.388       .  A
C195        H198   1.080       .  S
C196        C197   1.393       .  A
C196       C2318   1.491       .  S
C197        H199   1.081       .  S
Cu200       N203   2.062       .  S
Cu201       N211   2.082       .  S
Cu202       N204   2.069       .  S
Cu202       N210   2.072       .  S
N203        N204   1.319       .  A
N203        C207   1.338       .  A
N204        C205   1.349       .  A
C205        C206   1.389       .  A
C205        H208   1.081       .  S
C206        C207   1.386       .  A
C206       C2308   1.483       .  S
C207        H209   1.081       .  S
N210        N211   1.327       .  A
N210        C214   1.344       .  A
N211        C212   1.345       .  A
C212        C213   1.378       .  A
C212        H215   1.082       .  S
C213        C214   1.375       .  A
C213       C2327   1.432       .  S
C214        H216   1.082       .  S
N217        N218   1.318       .  A
N217        C221   1.349       .  A
N217       Cu225   2.069       .  S
N218        C219   1.337       .  A
N218       Cu224   2.062       .  S
C219        C220   1.389       .  A
C219        H222   1.079       .  S
C220        C221   1.391       .  A
C220       C2288   1.488       .  S
C221        H223   1.081       .  S
Cu224       N227   2.062       .  S
Cu225       N235   2.071       .  S
Cu226       N228   2.079       .  S
Cu226       N234   2.082       .  S
N227        N228   1.319       .  A
N227        C231   1.339       .  A
N228        C229   1.350       .  A
C229        C230   1.393       .  A
C229        H232   1.081       .  S
C230        C231   1.388       .  A
C230       C2298   1.490       .  S
C231        H233   1.080       .  S
N234        N235   1.327       .  A
N234        C238   1.345       .  A
N235        C236   1.343       .  A
C236        C237   1.375       .  A
C236        H239   1.082       .  S
C237        C238   1.378       .  A
C237       C2328   1.432       .  S
C238        H240   1.082       .  S
N241        N242   1.319       .  A
N241        C245   1.350       .  A
N241       Cu249   2.082   1_655  S
N242        C243   1.339       .  A
N242       Cu248   2.059       .  S
C243        C244   1.385       .  A
C243        H246   1.081       .  S
C244        C245   1.391       .  A
C244       C2266   1.485       .  S
C245        H247   1.082       .  S
Cu248       N251   2.059       .  S
Cu249       N259   2.084       .  S
Cu250       N252   2.080   1_455  S
Cu250       N258   2.083       .  S
N251        N252   1.320       .  A
N251        C255   1.339       .  A
N252        C253   1.350       .  A
C253        C254   1.390       .  A
C253        H256   1.082   1_655  S
C254        C255   1.384       .  A
C254       C2276   1.483       .  S
C255        H257   1.081       .  S
N258        N259   1.327       .  A
N258        C262   1.346       .  A
N259        C260   1.346       .  A
C260        C261   1.379       .  A
C260        H263   1.082       .  S
C261        C262   1.378       .  A
C261       C2285   1.438       .  S
C262        H264   1.082       .  S
N265        N266   1.321       .  A
N265        C269   1.350       .  A
N265       Cu273   2.081       .  S
N266        C267   1.342       .  A
N266       Cu272   2.077       .  S
C267        C268   1.389       .  A
C267        H270   1.081       .  S
C268        C269   1.390       .  A
C268       C2246   1.489       .  S
C269        H271   1.081       .  S
Cu272       N275   2.077       .  S
Cu273       N283   2.082       .  S
Cu274       N276   2.079       .  S
Cu274       N282   2.080       .  S
N275        N276   1.321       .  A
N275        C279   1.342       .  A
N276        C277   1.349       .  A
C277        C278   1.388       .  A
C277        H280   1.082       .  S
C278        C279   1.387       .  A
C278       C2256   1.486       .  S
C279        H281   1.082       .  S
N282        N283   1.326       .  A
N282        C286   1.346       .  A
N283        C284   1.346       .  A
C284        C285   1.379       .  A
C284        H287   1.082       .  S
C285        C286   1.379       .  A
C285       C2286   1.438       .  S
C286        H288   1.082       .  S
N289        N290   1.320       .  A
N289        C293   1.349       .  A
N289       Cu297   2.074       .  S
N290        C291   1.339       .  A
N290       Cu296   2.060       .  S
C291        C292   1.384       .  A
C291        H294   1.082       .  S
C292        C293   1.388       .  A
C292       C2224   1.479       .  S
C293        H295   1.082       .  S
Cu296       N299   2.060       .  S
Cu297       N307   2.076       .  S
Cu298       N300   2.074       .  S
Cu298       N306   2.076       .  S
N299        N300   1.319       .  A
N299        C303   1.339       .  A
N300        C301   1.349       .  A
C301        C302   1.389       .  A
C301        H304   1.082       .  S
C302        C303   1.385       .  A
C302       C2234   1.482       .  S
C303        H305   1.081       .  S
N306        N307   1.326       .  A
N306        C310   1.345       .  A
N307        C308   1.345       .  A
C308        C309   1.377       .  A
C308        H311   1.082       .  S
C309        C310   1.377       .  A
C309       C2243   1.433       .  S
C310        H312   1.082       .  S
N313        N314   1.319       .  A
N313        C317   1.350       .  A
N313       Cu321   2.076       .  S
N314        C315   1.338       .  A
N314       Cu320   2.060       .  S
C315        C316   1.385       .  A
C315        H318   1.081       .  S
C316        C317   1.390       .  A
C316       C2204   1.484       .  S
C317        H319   1.082       .  S
Cu320       N323   2.060       .  S
Cu321       N331   2.078       .  S
Cu322       N324   2.076       .  S
Cu322       N330   2.079       .  S
N323        N324   1.319       .  A
N323        C327   1.338       .  A
N324        C325   1.350       .  A
C325        C326   1.391       .  A
C325        H328   1.082       .  S
C326        C327   1.386       .  A
C326       C2214   1.486       .  S
C327        H329   1.081       .  S
N330        N331   1.327       .  A
N330        C334   1.345       .  A
N331        C332   1.345       .  A
C332        C333   1.377       .  A
C332        H335   1.082       .  S
C333        C334   1.377       .  A
C333       C2244   1.433       .  S
C334        H336   1.082       .  S
O337       Cu345   1.983   1_565  S
O337        C347   1.276       .  A
O338       Cu345   1.983       .  S
O338        C348   1.275       .  A
O339       Cu345   1.979       .  S
O339        C349   1.275       .  A
O340       Cu345   1.969       .  S
O340        C350   1.274       .  A
O341       Cu346   2.051       .  S
O341        C350   1.283       .  A
O342       Cu346   2.042       .  S
O342        C349   1.282       .  A
O343       Cu346   2.030       .  S
O343        C348   1.280       .  A
O344       Cu346   2.031   1_565  S
O344        C347   1.280       .  A
Cu345      Cu346   2.370       .  S
C347       C2489   1.477       .  S
C348       C2227   1.474       .  S
C349       C2301   1.484       .  S
C350       C2194   1.485       .  S
N351        N352   1.320       .  A
N351        C355   1.350       .  A
N351       Cu359   2.080       .  S
N352        C353   1.339       .  A
N352       Cu358   2.058       .  S
C353        C354   1.384       .  A
C353        H356   1.081       .  S
C354        C355   1.390       .  A
C354       C2185   1.482       .  S
C355        H357   1.082       .  S
Cu358       N361   2.058       .  S
Cu359       N369   2.083       .  S
Cu360       N362   2.079       .  S
Cu360       N368   2.082       .  S
N361        N362   1.319       .  A
N361        C365   1.339       .  A
N362        C363   1.350       .  A
C363        C364   1.390       .  A
C363        H366   1.082       .  S
C364        C365   1.385       .  A
C364       C2172   1.483       .  S
C365        H367   1.081       .  S
N368        N369   1.327       .  A
N368        C372   1.346   1_655  A
N369        C370   1.346       .  A
C370        C371   1.378   1_655  A
C370        H373   1.082       .  S
C371        C372   1.378       .  A
C371       C2191   1.437       .  S
C372        H374   1.082       .  S
N375        N376   1.321       .  A
N375        C379   1.349       .  A
N375       Cu383   2.078       .  S
N376        C377   1.343       .  A
N376       Cu382   2.081       .  S
C377        C378   1.388       .  A
C377        H380   1.081       .  S
C378        C379   1.388       .  A
C378       C2152   1.487       .  S
C379        H381   1.082       .  S
Cu382       N385   2.081       .  S
Cu383       N393   2.079       .  S
Cu384       N386   2.076       .  S
Cu384       N392   2.078       .  S
N385        N386   1.321       .  A
N385        C389   1.343       .  A
N386        C387   1.349       .  A
C387        C388   1.387       .  A
C387        H390   1.082       .  S
C388        C389   1.387       .  A
C388       C2162   1.484       .  S
C389        H391   1.082       .  S
N392        N393   1.325       .  A
N392        C396   1.345       .  A
N393        C394   1.346       .  A
C394        C395   1.379       .  A
C394        H397   1.082       .  S
C395        C396   1.378       .  A
C395       C2192   1.437       .  S
C396        H398   1.082       .  S
N399        N400   1.318       .  A
N399        C403   1.351       .  A
N399       Cu407   2.077       .  S
N400        C401   1.337       .  A
N400       Cu406   2.057       .  S
C401        C402   1.387       .  A
C401        H404   1.079       .  S
C402        C403   1.393       .  A
C402       C2140   1.490       .  S
C403        H405   1.081       .  S
Cu406       N409   2.057       .  S
Cu407       N417   2.081       .  S
Cu408       N410   2.083       .  S
Cu408       N416   2.086       .  S
N409        N410   1.318       .  A
N409        C413   1.337       .  A
N410        C411   1.351       .  A
C411        C412   1.394       .  A
C411        H414   1.081       .  S
C412        C413   1.387       .  A
C412       C2130   1.491       .  S
C413        H415   1.080       .  S
N416        N417   1.328       .  A
N416        C420   1.346       .  A
N417        C418   1.345       .  A
C418        C419   1.377       .  A
C418        H421   1.082       .  S
C419        C420   1.378       .  A
C419       C2149   1.435       .  S
C420        H422   1.082       .  S
N423        N424   1.317       .  A
N423        C427   1.351       .  A
N423       Cu431   2.079       .  S
N424        C425   1.337       .  A
N424       Cu430   2.053       .  S
C425        C426   1.387       .  A
C425        H428   1.080       .  S
C426        C427   1.394       .  A
C426       C2120   1.489       .  S
C427        H429   1.081       .  S
Cu430       N433   2.053       .  S
Cu431       N441   2.083       .  S
Cu432       N434   2.084       .  S
Cu432       N440   2.087       .  S
N433        N434   1.318       .  A
N433        C437   1.336       .  A
N434        C435   1.352       .  A
C435        C436   1.395       .  A
C435        H438   1.081       .  S
C436        C437   1.387       .  A
C436       C2197   1.491       .  S
C437        H439   1.080       .  S
N440        N441   1.328       .  A
N440        C444   1.346       .  A
N441        C442   1.345       .  A
C442        C443   1.377       .  A
C442        H445   1.082       .  S
C443        C444   1.378       .  A
C443       C2150   1.435       .  S
C444        H446   1.082       .  S
O447       Cu455   2.052       .  S
O447        C457   1.283       .  A
O448       Cu455   2.044   1_455  S
O448        C458   1.282       .  A
O449       Cu455   2.031   1_565  S
O449        C459   1.280       .  A
O450       Cu455   2.031       .  S
O450        C460   1.280       .  A
O451       Cu456   1.986       .  S
O451        C460   1.276       .  A
O452       Cu456   1.986   1_565  S
O452        C459   1.276       .  A
O453       Cu456   1.978   1_455  S
O453        C458   1.275       .  A
O454       Cu456   1.969       .  S
O454        C457   1.274       .  A
Cu455      Cu456   2.369       .  S
C457       C2321   1.486       .  S
C458       C2133   1.485       .  S
C459       C2279   1.476       .  S
C460       C2175   1.478       .  S
N461        N462   1.317       .  A
N461        C465   1.350       .  A
N461       Cu469   2.083       .  S
N462        C463   1.337       .  A
N462       Cu468   2.046       .  S
C463        C464   1.385       .  A
C463        H466   1.080       .  S
C464        C465   1.394       .  A
C464       C2108   1.487       .  S
C465        H467   1.081       .  S
Cu468       N471   2.045       .  S
Cu469       N479   2.087       .  S
Cu470       N472   2.080       .  S
Cu470       N478   2.083       .  S
N471        N472   1.318       .  A
N471        C475   1.335       .  A
N472        C473   1.351       .  A
C473        C474   1.392       .  A
C473        H476   1.082       .  S
C474        C475   1.382       .  A
C474       C2098   1.482       .  S
C475        H477   1.081       .  S
N478        N479   1.328       .  A
N478        C482   1.345       .  A
N479        C480   1.346       .  A
C480        C481   1.378       .  A
C480        H483   1.082       .  S
C481        C482   1.377       .  A
C481       C2118   1.436       .  S
C482        H484   1.082       .  S
N485        N486   1.318       .  A
N485        C489   1.351       .  A
N485       Cu493   2.079       .  S
N486        C487   1.337       .  A
N486       Cu492   2.062       .  S
C487        C488   1.388       .  A
C487        H490   1.079       .  S
C488        C489   1.393       .  A
C488       C2078   1.491       .  S
C489        H491   1.081       .  S
Cu492       N495   2.062       .  S
Cu493       N503   2.083       .  S
Cu494       N496   2.080       .  S
Cu494       N502   2.082       .  S
N495        N496   1.318       .  A
N495        C499   1.339       .  A
N496        C497   1.350       .  A
C497        C498   1.393       .  A
C497        H500   1.081       .  S
C498        C499   1.388       .  A
C498       C2091   1.491       .  S
C499        H501   1.080       .  S
N502        N503   1.327       .  A
N502        C506   1.346       .  A
N503        C504   1.345       .  A
C504        C505   1.378       .  A
C504        H507   1.082       .  S
C505        C506   1.378       .  A
C505       C2117   1.436       .  S
C506        H508   1.082       .  S
O509       Cu517   2.047       .  S
O509        C519   1.282       .  A
O510       Cu517   2.044       .  S
O510        C520   1.282       .  A
O511       Cu517   2.025   1_655  S
O511        C521   1.279       .  A
O512       Cu517   2.034       .  S
O512        C522   1.280       .  A
O513       Cu518   1.977       .  S
O513        C522   1.276       .  A
O514       Cu518   1.988   1_655  S
O514        C521   1.277       .  A
O515       Cu518   1.984       .  S
O515        C520   1.275       .  A
O516       Cu518   1.982       .  S
O516        C519   1.275       .  A
Cu517      Cu518   2.371       .  S
C519       C2165   1.479       .  S
C520       C2259   1.480       .  S
C521       C2405   1.475       .  S
C522       C2101   1.479       .  S
O523       Cu531   1.979       .  S
O523        C533   1.275       .  A
O524       Cu531   1.978       .  S
O524        C534   1.275       .  A
O525       Cu531   1.977       .  S
O525        C535   1.275       .  A
O526       Cu531   1.977       .  S
O526        C536   1.275       .  A
O527       Cu532   2.040       .  S
O527        C536   1.281       .  A
O528       Cu532   2.040       .  S
O528        C535   1.281       .  A
O529       Cu532   2.044       .  S
O529        C534   1.282       .  A
O530       Cu532   2.043       .  S
O530        C533   1.282       .  A
Cu531      Cu532   2.368       .  S
C533       C2088   1.485       .  S
C534       C2385   1.485       .  S
C535       C2469   1.482       .  S
C536       C2217   1.481       .  S
N537        N538   1.319       .  A
N537        C541   1.350       .  A
N537       Cu545   2.077       .  S
N538        C539   1.338       .  A
N538       Cu544   2.059       .  S
C539        C540   1.385       .  A
C539        H542   1.081       .  S
C540        C541   1.390       .  A
C540       C2056   1.483       .  S
C541        H543   1.082       .  S
Cu544       N547   2.059       .  S
Cu545       N555   2.080       .  S
Cu546       N548   2.078       .  S
Cu546       N554   2.081       .  S
N547        N548   1.319       .  A
N547        C551   1.338       .  A
N548        C549   1.350       .  A
C549        C550   1.392       .  A
C549        H552   1.081       .  S
C550        C551   1.386       .  A
C550       C2066   1.487       .  S
C551        H553   1.081       .  S
N554        N555   1.327       .  A
N554        C558   1.345       .  A
N555        C556   1.345       .  A
C556        C557   1.377       .  A
C556        H559   1.082       .  S
C557        C558   1.377       .  A
C557       C2075   1.434       .  S
C558        H560   1.082       .  S
N561        N562   1.321       .  A
N561        C565   1.348       .  A
N561       Cu569   2.073       .  S
N562        C563   1.340       .  A
N562       Cu568   2.069       .  S
C563        C564   1.385       .  A
C563        H566   1.082       .  S
C564        C565   1.387       .  A
C564       C2046   1.480       .  S
C565        H567   1.082       .  S
Cu568       N571   2.069       .  S
Cu569       N579   2.074       .  S
Cu570       N572   2.071       .  S
Cu570       N578   2.073       .  S
N571        N572   1.321       .  A
N571        C575   1.343       .  A
N572        C573   1.347       .  A
C573        C574   1.383       .  A
C573        H576   1.082       .  S
C574        C575   1.382       .  A
C574       C2036   1.470       .  S
C575        H577   1.082       .  S
N578        N579   1.325       .  A
N578        C582   1.345       .  A
N579        C580   1.345       .  A
C580        C581   1.378       .  A
C580        H583   1.082       .  S
C581        C582   1.378       .  A
C581       C2076   1.434       .  S
C582        H584   1.082       .  S
O585       Cu593   1.982   1_556  S
O585        C595   1.276       .  A
O586       Cu593   1.982       .  S
O586        C596   1.276       .  A
O587       Cu593   1.970       .  S
O587        C597   1.274       .  A
O588       Cu593   1.977       .  S
O588        C598   1.275       .  A
O589       Cu594   2.043       .  S
O589        C598   1.282       .  A
O590       Cu594   2.050       .  S
O590        C597   1.282       .  A
O591       Cu594   2.035       .  S
O591        C596   1.281       .  A
O592       Cu594   2.036   1_556  S
O592        C595   1.281       .  A
Cu593      Cu594   2.369       .  S
C595       C2459   1.480       .  S
C596       C2059   1.479       .  S
C597       C2026   1.485       .  S
C598       C2343   1.484       .  S
N599        N600   1.318       .  A
N599        C603   1.351       .  A
N599       Cu607   2.083       .  S
N600        C601   1.337       .  A
N600       Cu606   2.056       .  S
C601        C602   1.387       .  A
C601        H604   1.080   1_554  S
C602        C603   1.394       .  A
C602       C2004   1.490       .  S
C603        H605   1.081       .  S
Cu606       N609   2.056       .  S
Cu607       N617   2.086       .  S
Cu608       N610   2.077       .  S
Cu608       N616   2.080       .  S
N609        N610   1.318       .  A
N609        C613   1.337       .  A
N610        C611   1.351       .  A
C611        C612   1.393       .  A
C611        H614   1.081       .  S
C612        C613   1.387       .  A
C612       C2014   1.489       .  S
C613        H615   1.079       .  S
N616        N617   1.328       .  A
N616        C620   1.345       .  A
N617        C618   1.346       .  A
C618        C619   1.378       .  A
C618        H621   1.082       .  S
C619        C620   1.377       .  A
C619       C2023   1.435       .  S
C620        H622   1.082       .  S
N623        N624   1.317       .  A
N623        C627   1.351       .  A
N623       Cu631   2.079       .  S
N624        C625   1.337       .  A
N624       Cu630   2.052   1_554  S
C625        C626   1.386       .  A
C625        H628   1.080   1_554  S
C626        C627   1.393       .  A
C626       C1994   1.488       .  S
C627        H629   1.081       .  S
Cu630       N633   2.053   1_556  S
Cu631       N641   2.082       .  S
Cu632       N634   2.084       .  S
Cu632       N640   2.087       .  S
N633        N634   1.318       .  A
N633        C637   1.336       .  A
N634        C635   1.352       .  A
C635        C636   1.395       .  A
C635        H638   1.081       .  S
C636        C637   1.387       .  A
C636       C2029   1.491       .  S
C637        H639   1.079   1_554  S
N640        N641   1.328       .  A
N640        C644   1.346       .  A
N641        C642   1.345       .  A
C642        C643   1.377       .  A
C642        H645   1.082       .  S
C643        C644   1.378       .  A
C643       C2024   1.435       .  S
C644        H646   1.082       .  S
N647        N648   1.320       .  A
N647        C651   1.350       .  A
N647       Cu655   2.082   1_655  S
N648        C649   1.339       .  A
N648       Cu654   2.060       .  S
C649        C650   1.385       .  A
C649        H652   1.081       .  S
C650        C651   1.391       .  A
C650       C1982   1.485       .  S
C651        H653   1.082       .  S
Cu654       N657   2.060       .  S
Cu655       N665   2.084       .  S
Cu656       N658   2.077   1_455  S
Cu656       N664   2.080       .  S
N657        N658   1.319       .  A
N657        C661   1.339       .  A
N658        C659   1.349       .  A
C659        C660   1.390       .  A
C659        H662   1.082   1_655  S
C660        C661   1.385       .  A
C660       C1972   1.482       .  S
C661        H663   1.081       .  S
N664        N665   1.326       .  A
N664        C668   1.345       .  A
N665        C666   1.346       .  A
C666        C667   1.379       .  A
C666        H669   1.082       .  S
C667        C668   1.378       .  A
C667       C1991   1.437       .  S
C668        H670   1.082       .  S
N671        N672   1.321       .  A
N671        C675   1.349       .  A
N671       Cu679   2.080       .  S
N672        C673   1.343       .  A
N672       Cu678   2.081       .  S
C673        C674   1.388       .  A
C673        H676   1.081       .  S
C674        C675   1.389       .  A
C674       C1962   1.488       .  S
C675        H677   1.082       .  S
Cu678       N681   2.080       .  S
Cu679       N689   2.081       .  S
Cu680       N682   2.074       .  S
Cu680       N688   2.076       .  S
N681        N682   1.321       .  A
N681        C685   1.343       .  A
N682        C683   1.349       .  A
C683        C684   1.387       .  A
C683        H686   1.082       .  S
C684        C685   1.388       .  A
C684       C1952   1.484       .  S
C685        H687   1.082       .  S
N688        N689   1.325       .  A
N688        C692   1.345       .  A
N689        C690   1.346       .  A
C690        C691   1.380       .  A
C690        H693   1.082       .  S
C691        C692   1.378       .  A
C691       C1992   1.437       .  S
C692        H694   1.082       .  S
O695       Cu703   1.971       .  S
O695        C705   1.274       .  A
O696       Cu703   1.979   1_455  S
O696        C706   1.275       .  A
O697       Cu703   1.986   1_556  S
O697        C707   1.276       .  A
O698       Cu703   1.985       .  S
O698        C708   1.276       .  A
O699       Cu704   2.032       .  S
O699        C708   1.280       .  A
O700       Cu704   2.032   1_556  S
O700        C707   1.280       .  A
O701       Cu704   2.042   1_455  S
O701        C706   1.282       .  A
O702       Cu704   2.050       .  S
O702        C705   1.283       .  A
Cu703      Cu704   2.370       .  S
C705       C2353   1.485       .  S
C706       C2007   1.485       .  S
C707       C2269   1.478       .  S
C708       C1975   1.476       .  S
N709        N710   1.317       .  A
N709        C713   1.350       .  A
N709       Cu717   2.082       .  S
N710        C711   1.337       .  A
N710       Cu716   2.043       .  S
C711        C712   1.384       .  A
C711        H714   1.080       .  S
C712        C713   1.394       .  A
C712       C1940   1.486       .  S
C713        H715   1.081       .  S
Cu716       N719   2.042       .  S
Cu717       N727   2.086       .  S
Cu718       N720   2.077       .  S
Cu718       N726   2.082       .  S
N719        N720   1.317       .  A
N719        C723   1.333       .  A
N720        C721   1.352       .  A
C721        C722   1.394       .  A
C721        H724   1.081       .  S
C722        C723   1.385       .  A
C722       C1930   1.487       .  S
C723        H725   1.079       .  S
N726        N727   1.328       .  A
N726        C730   1.344       .  A
N727        C728   1.346       .  A
C728        C729   1.377       .  A
C728        H731   1.082       .  S
C729        C730   1.376       .  A
C729       C1950   1.433       .  S
C730        H732   1.082       .  S
N733        N734   1.319       .  A
N733        C737   1.351       .  A
N733       Cu741   2.077       .  S
N734        C735   1.338       .  A
N734       Cu740   2.064       .  S
C735        C736   1.389       .  A
C735        H738   1.079       .  S
C736        C737   1.392       .  A
C736       C1920   1.491       .  S
C737        H739   1.081       .  S
Cu740       N743   2.064       .  S
Cu741       N751   2.080       .  S
Cu742       N744   2.075       .  S
Cu742       N750   2.078       .  S
N743        N744   1.318       .  A
N743        C747   1.339       .  A
N744        C745   1.349       .  A
C745        C746   1.392       .  A
C745        H748   1.081       .  S
C746        C747   1.389       .  A
C746       C1913   1.490       .  S
C747        H749   1.080       .  S
N750        N751   1.327       .  A
N750        C754   1.345       .  A
N751        C752   1.345       .  A
C752        C753   1.377       .  A
C752        H755   1.082       .  S
C753        C754   1.377       .  A
C753       C1949   1.433       .  S
C754        H756   1.082       .  S
O757       Cu765   1.980       .  S
O757        C767   1.274       .  A
O758       Cu765   1.980       .  S
O758        C768   1.275       .  A
O759       Cu765   1.973   1_655  S
O759        C769   1.275       .  A
O760       Cu765   1.963       .  S
O760        C770   1.274       .  A
O761       Cu766   2.043       .  S
O761        C770   1.281       .  A
O762       Cu766   2.037   1_655  S
O762        C769   1.281       .  A
O763       Cu766   2.049       .  S
O763        C768   1.283       .  A
O764       Cu766   2.048       .  S
O764        C767   1.282       .  A
Cu765      Cu766   2.369       .  S
C767       C1955   1.479       .  S
C768       C2249   1.484       .  S
C769       C2447   1.481       .  S
C770       C1933   1.481       .  S
O771       Cu779   1.979       .  S
O771        C781   1.276       .  A
O772       Cu779   1.971       .  S
O772        C782   1.274       .  A
O773       Cu779   1.989       .  S
O773        C783   1.277       .  A
O774       Cu779   1.990       .  S
O774        C784   1.275       .  A
O775       Cu780   2.025       .  S
O775        C784   1.279       .  A
O776       Cu780   2.026       .  S
O776        C783   1.279       .  A
O777       Cu780   2.049       .  S
O777        C782   1.283       .  A
O778       Cu780   2.041       .  S
O778        C781   1.281       .  A
Cu779      Cu780   2.371       .  S
C781       C2427   1.485       .  S
C782       C1910   1.485       .  S
C783       C2479   1.478       .  S
C784       C2039   1.466       .  S
N785        N786   1.319       .  A
N785        C789   1.349       .  A
N785       Cu793   2.074       .  S
N786        C787   1.339       .  A
N786       Cu792   2.059       .  S
C787        C788   1.385       .  A
C787        H790   1.082       .  S
C788        C789   1.389       .  A
C788       C1888   1.481       .  S
C789        H791   1.082       .  S
Cu792       N795   2.059       .  S
Cu793       N803   2.076       .  S
Cu794       N796   2.073       .  S
Cu794       N802   2.076       .  S
N795        N796   1.319       .  A
N795        C799   1.339       .  A
N796        C797   1.349       .  A
C797        C798   1.389       .  A
C797        H800   1.082       .  S
C798        C799   1.384       .  A
C798       C1898   1.481       .  S
C799        H801   1.081       .  S
N802        N803   1.326       .  A
N802        C806   1.345       .  A
N803        C804   1.345       .  A
C804        C805   1.377       .  A
C804        H807   1.082       .  S
C805        C806   1.377       .  A
C805       C1907   1.433       .  S
C806        H808   1.082       .  S
N809        N810   1.318       .  A
N809        C813   1.350       .  A
N809       Cu817   2.076       .  S
N810        C811   1.337       .  A
N810       Cu816   2.056       .  S
C811        C812   1.386       .  A
C811        H814   1.080       .  S
C812        C813   1.392       .  A
C812       C1871   1.487       .  S
C813        H815   1.081       .  S
Cu816       N819   2.056       .  S
Cu817       N827   2.079       .  S
Cu818       N820   2.076       .  S
Cu818       N826   2.079       .  S
N819        N820   1.318       .  A
N819        C823   1.337       .  A
N820        C821   1.350       .  A
C821        C822   1.392       .  A
C821        H824   1.082       .  S
C822        C823   1.386       .  A
C822       C1878   1.486       .  S
C823        H825   1.081       .  S
N826        N827   1.327       .  A
N826        C830   1.345       .  A
N827        C828   1.345       .  A
C828        C829   1.377       .  A
C828        H831   1.082       .  S
C829        C830   1.377       .  A
C829       C1908   1.433       .  S
C830        H832   1.082       .  S
O833       Cu841   1.980   1_565  S
O833        C843   1.275       .  A
O834       Cu841   1.980       .  S
O834        C844   1.275       .  A
O835       Cu841   1.969       .  S
O835        C845   1.274       .  A
O836       Cu841   1.978       .  S
O836        C846   1.275       .  A
O837       Cu842   2.042       .  S
O837        C846   1.282       .  A
O838       Cu842   2.050       .  S
O838        C845   1.282       .  A
O839       Cu842   2.033       .  S
O839        C844   1.280       .  A
O840       Cu842   2.033   1_565  S
O840        C843   1.280       .  A
Cu841      Cu842   2.369       .  S
C843       C2049   1.475       .  S
C844       C1891   1.477       .  S
C845       C1858   1.485       .  S
C846       C1848   1.484       .  S
O847       Cu855   2.038   1_556  S
O847        C857   1.281       .  A
O848       Cu855   2.038       .  S
O848        C858   1.281       .  A
O849       Cu855   2.045       .  S
O849        C859   1.282       .  A
O850       Cu855   2.047       .  S
O850        C860   1.282       .  A
O851       Cu856   1.971       .  S
O851        C860   1.274       .  A
O852       Cu856   1.975       .  S
O852        C859   1.275       .  A
O853       Cu856   1.977       .  S
O853        C858   1.275       .  A
O854       Cu856   1.977   1_556  S
O854        C857   1.275       .  A
Cu855      Cu856   2.368       .  S
C857       C2207   1.478       .  S
C858       C1868   1.481       .  S
C859       C1841   1.485       .  S
C860       C1828   1.484       .  S
N861        N862   1.316       .  A
N861        C865   1.350       .  A
N861       Cu869   2.081       .  S
N862        C863   1.336       .  A
N862       Cu868   2.041       .  S
C863        C864   1.385       .  A
C863        H866   1.080       .  S
C864        C865   1.395       .  A
C864       C1816   1.487       .  S
C865        H867   1.081       .  S
Cu868       N871   2.041       .  S
Cu869       N879   2.086       .  S
Cu870       N872   2.075       .  S
Cu870       N878   2.080       .  S
N871        N872   1.316       .  A
N871        C875   1.332       .  A
N872        C873   1.352       .  A
C873        C874   1.394       .  A
C873        H876   1.081       .  S
C874        C875   1.385       .  A
C874       C1806   1.487       .  S
C875        H877   1.079       .  S
N878        N879   1.328       .  A
N878        C882   1.344       .  A
N879        C880   1.346       .  A
C880        C881   1.377       .  A
C880        H883   1.082       .  S
C881        C882   1.375       .  A
C881       C1826   1.432       .  S
C882        H884   1.082       .  S
N885        N886   1.319       .  A
N885        C889   1.351       .  A
N885       Cu893   2.077       .  S
N886        C887   1.337       .  A
N886       Cu892   2.064       .  S
C887        C888   1.389       .  A
C887        H890   1.079       .  S
C888        C889   1.392       .  A
C888       C1786   1.491       .  S
C889        H891   1.081       .  S
Cu892       N895   2.064       .  S
Cu893       N903   2.080       .  S
Cu894       N896   2.073       .  S
Cu894       N902   2.075       .  S
N895        N896   1.318       .  A
N895        C899   1.339       .  A
N896        C897   1.349       .  A
C897        C898   1.392       .  A
C897        H900   1.081       .  S
C898        C899   1.389       .  A
C898       C1796   1.489       .  S
C899        H901   1.080       .  S
N902        N903   1.327       .  A
N902        C906   1.345       .  A
N903        C904   1.345       .  A
C904        C905   1.377       .  A
C904        H907   1.082       .  S
C905        C906   1.376       .  A
C905       C1825   1.432       .  S
C906        H908   1.082       .  S
O909       Cu917   2.052       .  S
O909        C919   1.283       .  A
O910       Cu917   2.052       .  S
O910        C920   1.283       .  A
O911       Cu917   2.038       .  S
O911        C921   1.280       .  A
O912       Cu917   2.039   1_655  S
O912        C922   1.281       .  A
O913       Cu918   1.968   1_655  S
O913        C922   1.274       .  A
O914       Cu918   1.966       .  S
O914        C921   1.275       .  A
O915       Cu918   1.977       .  S
O915        C920   1.274       .  A
O916       Cu918   1.977       .  S
O916        C919   1.274       .  A
Cu917      Cu918   2.368       .  S
C919       C2155   1.484       .  S
C920       C1776   1.482       .  S
C921       C1809   1.480       .  S
C922       C1766   1.481       .  S
O923       Cu931   1.963   1_565  S
O923        C933   1.273       .  A
O924       Cu931   1.962       .  S
O924        C934   1.273       .  A
O925       Cu931   1.981       .  S
O925        C935   1.276       .  A
O926       Cu931   1.981       .  S
O926        C936   1.276       .  A
O927       Cu932   2.034       .  S
O927        C936   1.280       .  A
O928       Cu932   2.035       .  S
O928        C935   1.280       .  A
O929       Cu932   2.056       .  S
O929        C934   1.283       .  A
O930       Cu932   2.055   1_565  S
O930        C933   1.283       .  A
Cu931      Cu932   2.367       .  S
C933       C1923   1.486       .  S
C934       C1789   1.486       .  S
C935       C2123   1.482       .  S
C936       C1756   1.482       .  S
N937        N938   1.318       .  A
N937        C941   1.351       .  A
N937       Cu945   2.083       .  S
N938        C939   1.337       .  A
N938       Cu944   2.056       .  S
C939        C940   1.387       .  A
C939        H942   1.080       .  S
C940        C941   1.394       .  A
C940       C1747   1.490       .  S
C941        H943   1.081       .  S
Cu944       N947   2.056       .  S
Cu945       N955   2.087       .  S
Cu946       N948   2.077       .  S
Cu946       N954   2.080       .  S
N947        N948   1.318       .  A
N947        C951   1.337       .  A
N948        C949   1.350       .  A
C949        C950   1.393       .  A
C949        H952   1.081       .  S
C950        C951   1.387       .  A
C950       C1734   1.489       .  S
C951        H953   1.079       .  S
N954        N955   1.328       .  A
N954        C958   1.345       .  A
N955        C956   1.346       .  A
C956        C957   1.378       .  A
C956        H959   1.082       .  S
C957        C958   1.377       .  A
C957       C1753   1.435       .  S
C958        H960   1.082       .  S
N961        N962   1.318       .  A
N961        C965   1.352       .  A
N961       Cu969   2.084       .  S
N962        C963   1.336       .  A
N962       Cu968   2.051       .  S
C963        C964   1.387       .  A
C963        H966   1.079       .  S
C964        C965   1.395       .  A
C964       C1838   1.491       .  S
C965        H967   1.081       .  S
Cu968       N971   2.051       .  S
Cu969       N979   2.088       .  S
Cu970       N972   2.079       .  S
Cu970       N978   2.082       .  S
N971        N972   1.317       .  A
N971        C975   1.337       .  A
N972        C973   1.351       .  A
C973        C974   1.394       .  A
C973        H976   1.081       .  S
C974        C975   1.386       .  A
C974       C1724   1.488       .  S
C975        H977   1.080       .  S
N978        N979   1.328       .  A
N978        C982   1.345       .  A
N979        C980   1.346       .  A
C980        C981   1.378       .  A
C980        H983   1.082       .  S
C981        C982   1.377       .  A
C981       C1754   1.435       .  S
C982        H984   1.082       .  S
N985        N986   1.318       .  A
N985        C989   1.351       .  A
N985       Cu993   2.083       .  S
N986        C987   1.337       .  A
N986       Cu992   2.057       .  S
C987        C988   1.387       .  A
C987        H990   1.080       .  S
C988        C989   1.394       .  A
C988       C1712   1.490       .  S
C989        H991   1.081       .  S
Cu992       N995   2.057       .  S
Cu993      N1003   2.086       .  S
Cu994       N996   2.077       .  S
Cu994      N1002   2.080       .  S
N995        N996   1.318       .  A
N995        C999   1.337       .  A
N996        C997   1.350       .  A
C997        C998   1.393       .  A
C997       H1000   1.081       .  S
C998        C999   1.388       .  A
C998       C1702   1.489       .  S
C999       H1001   1.079       .  S
N1002      N1003   1.328       .  A
N1002      C1006   1.345       .  A
N1003      C1004   1.346       .  A
C1004      C1005   1.378       .  A
C1004      H1007   1.082       .  S
C1005      C1006   1.377       .  A
C1005      C1721   1.435       .  S
C1006      H1008   1.082       .  S
N1009      N1010   1.318       .  A
N1009      C1013   1.352       .  A
N1009     Cu1017   2.083       .  S
N1010      C1011   1.336       .  A
N1010     Cu1016   2.052       .  S
C1011      C1012   1.387       .  A
C1011      H1014   1.079       .  S
C1012      C1013   1.395       .  A
C1012      C1861   1.491       .  S
C1013      H1015   1.081       .  S
Cu1016     N1019   2.052       .  S
Cu1017     N1027   2.087       .  S
Cu1018     N1020   2.078       .  S
Cu1018     N1026   2.082       .  S
N1019      N1020   1.317       .  A
N1019      C1023   1.337       .  A
N1020      C1021   1.350       .  A
C1021      C1022   1.394       .  A
C1021      H1024   1.081       .  S
C1022      C1023   1.386       .  A
C1022      C1759   1.488       .  S
C1023      H1025   1.080       .  S
N1026      N1027   1.328       .  A
N1026      C1030   1.345       .  A
N1027      C1028   1.346       .  A
C1028      C1029   1.378       .  A
C1028      H1031   1.082       .  S
C1029      C1030   1.377       .  A
C1029      C1722   1.435       .  S
C1030      H1032   1.082       .  S
N1033      N1034   1.321       .  A
N1033      C1037   1.349       .  A
N1033     Cu1041   2.076       .  S
N1034      C1035   1.340       .  A
N1034     Cu1040   2.064       .  S
C1035      C1036   1.383       .  A
C1035      H1038   1.082       .  S
C1036      C1037   1.387       .  A
C1036      C1690   1.477       .  S
C1037      H1039   1.082       .  S
Cu1040     N1043   2.064       .  S
Cu1041     N1051   2.078       .  S
Cu1042     N1044   2.076   1_455  S
Cu1042     N1050   2.078       .  S
N1043      N1044   1.320       .  A
N1043      C1047   1.340       .  A
N1044      C1045   1.349       .  A
C1045      C1046   1.388       .  A
C1045      H1048   1.082       .  S
C1046      C1047   1.385       .  A
C1046      C1680   1.481       .  S
C1047      H1049   1.081       .  S
N1050      N1051   1.326   1_455  A
N1050      C1054   1.345       .  A
N1051      C1052   1.345       .  A
C1052      C1053   1.378   1_655  A
C1052      H1055   1.082       .  S
C1053      C1054   1.378       .  A
C1053      C1699   1.436       .  S
C1054      H1056   1.082       .  S
N1057      N1058   1.322       .  A
N1057      C1061   1.348       .  A
N1057     Cu1065   2.074       .  S
N1058      C1059   1.345       .  A
N1058     Cu1064   2.084       .  S
C1059      C1060   1.387       .  A
C1059      H1062   1.082       .  S
C1060      C1061   1.385       .  A
C1060      C1670   1.481       .  S
C1061      H1063   1.082       .  S
Cu1064     N1067   2.085       .  S
Cu1065     N1075   2.075       .  S
Cu1066     N1068   2.075       .  S
Cu1066     N1074   2.076       .  S
N1067      N1068   1.321       .  A
N1067      C1071   1.343       .  A
N1068      C1069   1.349       .  A
C1069      C1070   1.387       .  A
C1069      H1072   1.082       .  S
C1070      C1071   1.389       .  A
C1070      C1779   1.487       .  S
C1071      H1073   1.081       .  S
N1074      N1075   1.324       .  A
N1074      C1078   1.345       .  A
N1075      C1076   1.345       .  A
C1076      C1077   1.378       .  A
C1076      H1079   1.082       .  S
C1077      C1078   1.379       .  A
C1077      C1700   1.436       .  S
C1078      H1080   1.082       .  S
O1081     Cu1089   1.975       .  S
O1081      C1091   1.275       .  A
O1082     Cu1089   1.974   1_455  S
O1082      C1092   1.275       .  A
O1083     Cu1089   1.987   1_565  S
O1083      C1093   1.276       .  A
O1084     Cu1089   1.986       .  S
O1084      C1094   1.276       .  A
O1085     Cu1090   2.031       .  S
O1085      C1094   1.280       .  A
O1086     Cu1090   2.031   1_565  S
O1086      C1093   1.280       .  A
O1087     Cu1090   2.047   1_455  S
O1087      C1092   1.282       .  A
O1088     Cu1090   2.045       .  S
O1088      C1091   1.282       .  A
Cu1089    Cu1090   2.369       .  S
C1091      C1660   1.484       .  S
C1092      C1715   1.485       .  S
C1093      C1985   1.478       .  S
C1094      C1693   1.474       .  S
O1095     Cu1103   1.972   1_556  S
O1095      C1105   1.274       .  A
O1096     Cu1103   1.971       .  S
O1096      C1106   1.274       .  A
O1097     Cu1103   1.972       .  S
O1097      C1107   1.274       .  A
O1098     Cu1103   1.972   1_565  S
O1098      C1108   1.274       .  A
O1099     Cu1104   2.044   1_565  S
O1099      C1108   1.282       .  A
O1100     Cu1104   2.044       .  S
O1100      C1107   1.282       .  A
O1101     Cu1104   2.044       .  S
O1101      C1106   1.282       .  A
O1102     Cu1104   2.044   1_556  S
O1102      C1105   1.282       .  A
Cu1103    Cu1104   2.367       .  S
C1105      C2143   1.483       .  S
C1106      C1705   1.483       .  S
C1107      C1737   1.483       .  S
C1108      C2017   1.483       .  S
O1109     Cu1117   2.045       .  S
O1109      C1119   1.282       .  A
O1110     Cu1117   2.044   1_455  S
O1110      C1120   1.282       .  A
O1111     Cu1117   2.032   1_556  S
O1111      C1121   1.280       .  A
O1112     Cu1117   2.033       .  S
O1112      C1122   1.280       .  A
O1113     Cu1118   1.983       .  S
O1113      C1122   1.275       .  A
O1114     Cu1118   1.985   1_556  S
O1114      C1121   1.276       .  A
O1115     Cu1118   1.977   1_455  S
O1115      C1120   1.275       .  A
O1116     Cu1118   1.976   1_556  S
O1116      C1119   1.275   1_556  A
Cu1117    Cu1118   2.369       .  S
C1119      C1650   1.483       .  S
C1120      C1744   1.485       .  S
C1121      C2182   1.479       .  S
C1122      C1683   1.476       .  S
N1123      N1124   1.317       .  A
N1123      C1127   1.350       .  A
N1123     Cu1131   2.080       .  S
N1124      C1125   1.337       .  A
N1124     Cu1130   2.046       .  S
C1125      C1126   1.385       .  A
C1125      H1128   1.080       .  S
C1126      C1127   1.394       .  A
C1126      C1638   1.487       .  S
C1127      H1129   1.081       .  S
Cu1130     N1133   2.046       .  S
Cu1131     N1141   2.084       .  S
Cu1132     N1134   2.075       .  S
Cu1132     N1140   2.079       .  S
N1133      N1134   1.318       .  A
N1133      C1137   1.334       .  A
N1134      C1135   1.351       .  A
C1135      C1136   1.392       .  A
C1135      H1138   1.082       .  S
C1136      C1137   1.383       .  A
C1136      C1631   1.482       .  S
C1137      H1139   1.081       .  S
N1140      N1141   1.328       .  A
N1140      C1144   1.344       .  A
N1141      C1142   1.346       .  A
C1142      C1143   1.377       .  A
C1142      H1145   1.082       .  S
C1143      C1144   1.375       .  A
C1143      C1647   1.433       .  S
C1144      H1146   1.082       .  S
N1147      N1148   1.318       .  A
N1147      C1151   1.351       .  A
N1147     Cu1155   2.077       .  S
N1148      C1149   1.337       .  A
N1148     Cu1154   2.063       .  S
C1149      C1150   1.389       .  A
C1149      H1152   1.079       .  S
C1150      C1151   1.392       .  A
C1150      C1608   1.491       .  S
C1151      H1153   1.081       .  S
Cu1154     N1157   2.063       .  S
Cu1155     N1165   2.080       .  S
Cu1156     N1158   2.073       .  S
Cu1156     N1164   2.076       .  S
N1157      N1158   1.318       .  A
N1157      C1161   1.339       .  A
N1158      C1159   1.349       .  A
C1159      C1160   1.392       .  A
C1159      H1162   1.081       .  S
C1160      C1161   1.389       .  A
C1160      C1618   1.489       .  S
C1161      H1163   1.080       .  S
N1164      N1165   1.327       .  A
N1164      C1168   1.345       .  A
N1165      C1166   1.345       .  A
C1166      C1167   1.377       .  A
C1166      H1169   1.082       .  S
C1167      C1168   1.376       .  A
C1167      C1648   1.433       .  S
C1168      H1170   1.082       .  S
O1171     Cu1179   1.984       .  S
O1171      C1181   1.275       .  A
O1172     Cu1179   1.984       .  S
O1172      C1182   1.274       .  A
O1173     Cu1179   1.968       .  S
O1173      C1183   1.275       .  A
O1174     Cu1179   1.979   1_655  S
O1174      C1184   1.276       .  A
O1175     Cu1180   2.032   1_655  S
O1175      C1184   1.280       .  A
O1176     Cu1180   2.040       .  S
O1176      C1183   1.281       .  A
O1177     Cu1180   2.045       .  S
O1177      C1182   1.282       .  A
O1178     Cu1180   2.046       .  S
O1178      C1181   1.282       .  A
Cu1179    Cu1180   2.370       .  S
C1181      C1965   1.483       .  S
C1182      C1673   1.476       .  S
C1183      C1628   1.479       .  S
C1184      C1598   1.480       .  S
O1185     Cu1193   1.982       .  S
O1185      C1195   1.276       .  A
O1186     Cu1193   1.982       .  S
O1186      C1196   1.276       .  A
O1187     Cu1193   1.964   1_556  S
O1187      C1197   1.273       .  A
O1188     Cu1193   1.962       .  S
O1188      C1198   1.273       .  A
O1189     Cu1194   2.056       .  S
O1189      C1198   1.283       .  A
O1190     Cu1194   2.055   1_556  S
O1190      C1197   1.283       .  A
O1191     Cu1194   2.033       .  S
O1191      C1196   1.280       .  A
O1192     Cu1194   2.033       .  S
O1192      C1195   1.280       .  A
Cu1193    Cu1194   2.367       .  S
C1195      C1997   1.482       .  S
C1196      C1727   1.482       .  S
C1197      C2081   1.486       .  S
C1198      C1611   1.485       .  S
O1199     Cu1207   2.025       .  S
O1199      C1209   1.280       .  A
O1200     Cu1207   2.024       .  S
O1200      C1210   1.280       .  A
O1201     Cu1207   2.022       .  S
O1201      C1211   1.279       .  A
O1202     Cu1207   2.022       .  S
O1202      C1212   1.279       .  A
O1203     Cu1208   1.991       .  S
O1203      C1212   1.277       .  A
O1204     Cu1208   1.991       .  S
O1204      C1211   1.277       .  A
O1205     Cu1208   1.989       .  S
O1205      C1210   1.277       .  A
O1206     Cu1208   1.988       .  S
O1206      C1209   1.277       .  A
Cu1207    Cu1208   2.370       .  S
C1209      C2111   1.481       .  S
C1210      C1641   1.481       .  S
C1211      C1943   1.480       .  S
C1212      C1819   1.480       .  S
O1213     Cu1221   2.046       .  S
O1213      C1223   1.282       .  A
O1214     Cu1221   2.045       .  S
O1214      C1224   1.282       .  A
O1215     Cu1221   2.033       .  S
O1215      C1225   1.280       .  A
O1216     Cu1221   2.032       .  S
O1216      C1226   1.280       .  A
O1217     Cu1222   1.980       .  S
O1217      C1226   1.275       .  A
O1218     Cu1222   1.979       .  S
O1218      C1225   1.275       .  A
O1219     Cu1222   1.973       .  S
O1219      C1224   1.274       .  A
O1220     Cu1222   1.972       .  S
O1220      C1223   1.275       .  A
Cu1221    Cu1222   2.369       .  S
C1223      C1588   1.485       .  S
C1224      C1799   1.484       .  S
C1225      C2237   1.477       .  S
C1226      C1901   1.477       .  S
O1227     Cu1235   2.044       .  S
O1227      C1237   1.282       .  A
O1228     Cu1235   2.045       .  S
O1228      C1238   1.282       .  A
O1229     Cu1235   2.040       .  S
O1229      C1239   1.281       .  A
O1230     Cu1235   2.039       .  S
O1230      C1240   1.281       .  A
O1231     Cu1236   1.976       .  S
O1231      C1240   1.275       .  A
O1232     Cu1236   1.976       .  S
O1232      C1239   1.275       .  A
O1233     Cu1236   1.972       .  S
O1233      C1238   1.275       .  A
O1234     Cu1236   1.973       .  S
O1234      C1237   1.274       .  A
Cu1235    Cu1236   2.368       .  S
C1237      C1621   1.483       .  S
C1238      C1578   1.484       .  S
C1239      C2069   1.482       .  S
C1240      C1881   1.481       .  S
N1241      N1242   1.317       .  A
N1241      C1245   1.352       .  A
N1241     Cu1249   2.082       .  S
N1242      C1243   1.336       .  A
N1242     Cu1248   2.051       .  S
C1243      C1244   1.386       .  A
C1243      H1246   1.080       .  S
C1244      C1245   1.394       .  A
C1244      C1581   1.490       .  S
C1245      H1247   1.081       .  S
Cu1248     N1251   2.051       .  S
Cu1249     N1259   2.085       .  S
Cu1250     N1252   2.083       .  S
Cu1250     N1258   2.086       .  S
N1251      N1252   1.317       .  A
N1251      C1255   1.337       .  A
N1252      C1253   1.351       .  A
C1253      C1254   1.395       .  A
C1253      H1256   1.081       .  S
C1254      C1255   1.386       .  A
C1254      C1566   1.490       .  S
C1255      H1257   1.079       .  S
N1258      N1259   1.328       .  A
N1258      C1262   1.346       .  A
N1259      C1260   1.345       .  A
C1260      C1261   1.377       .  A
C1260      H1263   1.082       .  S
C1261      C1262   1.377       .  A
C1261      C1575   1.436       .  S
C1262      H1264   1.082       .  S
N1265      N1266   1.318       .  A
N1265      C1269   1.350       .  A
N1265     Cu1273   2.081       .  S
N1266      C1267   1.338       .  A
N1266     Cu1272   2.052       .  S
C1267      C1268   1.384       .  A
C1267      H1270   1.081       .  S
C1268      C1269   1.392       .  A
C1268      C1556   1.484       .  S
C1269      H1271   1.081       .  S
Cu1272     N1275   2.052       .  S
Cu1273     N1283   2.084       .  S
Cu1274     N1276   2.079       .  S
Cu1274     N1282   2.082       .  S
N1275      N1276   1.318       .  A
N1275      C1279   1.336       .  A
N1276      C1277   1.351       .  A
C1277      C1278   1.393       .  A
C1277      H1280   1.082       .  S
C1278      C1279   1.385       .  A
C1278      C1601   1.486       .  S
C1279      H1281   1.080       .  S
N1282      N1283   1.327       .  A
N1282      C1286   1.345       .  A
N1283      C1284   1.346       .  A
C1284      C1285   1.378       .  A
C1284      H1287   1.082       .  S
C1285      C1286   1.377       .  A
C1285      C1576   1.436       .  S
C1286      H1288   1.082       .  S
O1289     Cu1297   2.035       .  S
O1289      C1299   1.280       .  A
O1290     Cu1297   2.033   1_554  S
O1290      C1300   1.280       .  A
O1291     Cu1297   2.054       .  S
O1291      C1301   1.283       .  A
O1292     Cu1297   2.054       .  S
O1292      C1302   1.283       .  A
O1293     Cu1298   1.957       .  S
O1293      C1302   1.272       .  A
O1294     Cu1298   1.956       .  S
O1294      C1301   1.272       .  A
O1295     Cu1298   1.986   1_554  S
O1295      C1300   1.276       .  A
O1296     Cu1298   1.986       .  S
O1296      C1299   1.277       .  A
Cu1297    Cu1298   2.367       .  S
C1299      C2375   1.484       .  S
C1300      C1569   1.483       .  S
C1301      C1546   1.483   1_556  S
C1302      C2333   1.483       .  S
N1303      N1304   1.319       .  A
N1303      C1307   1.350       .  A
N1303     Cu1311   2.079       .  S
N1304      C1305   1.338       .  A
N1304     Cu1310   2.059       .  S
C1305      C1306   1.387       .  A
C1305      H1308   1.080       .  S
C1306      C1307   1.392       .  A
C1306      C1653   1.488       .  S
C1307      H1309   1.081       .  S
Cu1310     N1313   2.059       .  S
Cu1311     N1321   2.082       .  S
Cu1312     N1314   2.069       .  S
Cu1312     N1320   2.072       .  S
N1313      N1314   1.318       .  A
N1313      C1317   1.337       .  A
N1314      C1315   1.349       .  A
C1315      C1316   1.391       .  A
C1315      H1318   1.081       .  S
C1316      C1317   1.388       .  A
C1316      C1534   1.487       .  S
C1317      H1319   1.079       .  S
N1320      N1321   1.327       .  A
N1320      C1324   1.344       .  A
N1321      C1322   1.345       .  A
C1322      C1323   1.377       .  A
C1322      H1325   1.082       .  S
C1323      C1324   1.375       .  A
C1323      C1543   1.431       .  S
C1324      H1326   1.082       .  S
N1327      N1328   1.318       .  A
N1327      C1331   1.349       .  A
N1327     Cu1335   2.068       .  S
N1328      C1329   1.337       .  A
N1328     Cu1334   2.063       .  S
C1329      C1330   1.389       .  A
C1329      H1332   1.079       .  S
C1330      C1331   1.391       .  A
C1330      C1549   1.488       .  S
C1331      H1333   1.081       .  S
Cu1334     N1337   2.063       .  S
Cu1335     N1345   2.071       .  S
Cu1336     N1338   2.078       .  S
Cu1336     N1344   2.080       .  S
N1337      N1338   1.319       .  A
N1337      C1341   1.338       .  A
N1338      C1339   1.350       .  A
C1339      C1340   1.392       .  A
C1339      H1342   1.081       .  S
C1340      C1341   1.388       .  A
C1340      C1831   1.490       .  S
C1341      H1343   1.080       .  S
N1344      N1345   1.327       .  A
N1344      C1348   1.345       .  A
N1345      C1346   1.343       .  A
C1346      C1347   1.375       .  A
C1346      H1349   1.082       .  S
C1347      C1348   1.378       .  A
C1347      C1544   1.431       .  S
C1348      H1350   1.082       .  S
N1351      N1352   1.318       .  A
N1351      C1355   1.350       .  A
N1351     Cu1359   2.079       .  S
N1352      C1353   1.338       .  A
N1352     Cu1358   2.058       .  S
C1353      C1354   1.387       .  A
C1353      H1356   1.080       .  S
C1354      C1355   1.393       .  A
C1354      C1663   1.490       .  S
C1355      H1357   1.081       .  S
Cu1358     N1361   2.058       .  S
Cu1359     N1369   2.082       .  S
Cu1360     N1362   2.070       .  S
Cu1360     N1368   2.073       .  S
N1361      N1362   1.318       .  A
N1361      C1365   1.337       .  A
N1362      C1363   1.349       .  A
C1363      C1364   1.392       .  A
C1363      H1366   1.081       .  S
C1364      C1365   1.388       .  A
C1364      C1522   1.487       .  S
C1365      H1367   1.079       .  S
N1368      N1369   1.327       .  A
N1368      C1372   1.344       .  A
N1369      C1370   1.345       .  A
C1370      C1371   1.377       .  A
C1370      H1373   1.082       .  S
C1371      C1372   1.375       .  A
C1371      C1531   1.431       .  S
C1372      H1374   1.082       .  S
N1375      N1376   1.318       .  A
N1375      C1379   1.349       .  A
N1375     Cu1383   2.068       .  S
N1376      C1377   1.337       .  A
N1376     Cu1382   2.062       .  S
C1377      C1378   1.389       .  A
C1377      H1380   1.079       .  S
C1378      C1379   1.391       .  A
C1378      C1515   1.488       .  S
C1379      H1381   1.081       .  S
Cu1382     N1385   2.062       .  S
Cu1383     N1393   2.071       .  S
Cu1384     N1386   2.078       .  S
Cu1384     N1392   2.081       .  S
N1385      N1386   1.318       .  A
N1385      C1389   1.339       .  A
N1386      C1387   1.350       .  A
C1387      C1388   1.392       .  A
C1387      H1390   1.081       .  S
C1388      C1389   1.388       .  A
C1388      C1851   1.490       .  S
C1389      H1391   1.080       .  S
N1392      N1393   1.327       .  A
N1392      C1396   1.345       .  A
N1393      C1394   1.343       .  A
C1394      C1395   1.375       .  A
C1394      H1397   1.082       .  S
C1395      C1396   1.378       .  A
C1395      C1532   1.431       .  S
C1396      H1398   1.082       .  S
O1399     Cu1407   2.042       .  S
O1399      C1409   1.281       .  A
O1400     Cu1407   2.042   1_556  S
O1400      C1410   1.282       .  A
O1401     Cu1407   2.046   1_565  S
O1401      C1411   1.282       .  A
O1402     Cu1407   2.045       .  S
O1402      C1412   1.282   1_554  A
O1403     Cu1408   1.965   1_556  S
O1403      C1412   1.274       .  A
O1404     Cu1408   1.964   1_565  S
O1404      C1411   1.273       .  A
O1405     Cu1408   1.969   1_556  S
O1405      C1410   1.274       .  A
O1406     Cu1408   1.968       .  S
O1406      C1409   1.274       .  A
Cu1407    Cu1408   2.368       .  S
C1409      C1525   1.482       .  S
C1410      C2311   1.479       .  S
C1411      C2363   1.482       .  S
C1412      C1537   1.482       .  S
N1413      N1414   1.317       .  A
N1413      C1417   1.352       .  A
N1413     Cu1421   2.082       .  S
N1414      C1415   1.336       .  A
N1414     Cu1420   2.052       .  S
C1415      C1416   1.387       .  A
C1415      H1418   1.079       .  S
C1416      C1417   1.395       .  A
C1416      C1591   1.490       .  S
C1417      H1419   1.081       .  S
Cu1420     N1423   2.052       .  S
Cu1421     N1431   2.085       .  S
Cu1422     N1424   2.082       .  S
Cu1422     N1430   2.086       .  S
N1423      N1424   1.317       .  A
N1423      C1427   1.337       .  A
N1424      C1425   1.351       .  A
C1425      C1426   1.395       .  A
C1425      H1428   1.081       .  S
C1426      C1427   1.386       .  A
C1426      C1500   1.490       .  S
C1427      H1429   1.079       .  S
N1430      N1431   1.328       .  A
N1430      C1434   1.346       .  A
N1431      C1432   1.346       .  A
C1432      C1433   1.377       .  A
C1432      H1435   1.082       .  S
C1433      C1434   1.377       .  A
C1433      C1509   1.435       .  S
C1434      H1436   1.082       .  S
N1437      N1438   1.319       .  A
N1437      C1441   1.349       .  A
N1437     Cu1445   2.079       .  S
N1438      C1439   1.340       .  A
N1438     Cu1444   2.054       .  S
C1439      C1440   1.381       .  A
C1439      H1442   1.082       .  S
C1440      C1441   1.388       .  A
C1440      C1490   1.476       .  S
C1441      H1443   1.082       .  S
Cu1444     N1447   2.054       .  S
Cu1445     N1455   2.082       .  S
Cu1446     N1448   2.077       .  S
Cu1446     N1454   2.080       .  S
N1447      N1448   1.318       .  A
N1447      C1451   1.336       .  A
N1448      C1449   1.350       .  A
C1449      C1450   1.392       .  A
C1449      H1452   1.081       .  S
C1450      C1451   1.386       .  A
C1450      C1769   1.486       .  S
C1451      H1453   1.080       .  S
N1454      N1455   1.327       .  A
N1454      C1458   1.345       .  A
N1455      C1456   1.345       .  A
C1456      C1457   1.378       .  A
C1456      H1459   1.082       .  S
C1457      C1458   1.378       .  A
C1457      C1510   1.435       .  S
C1458      H1460   1.082       .  S
O1461     Cu1469   1.985   1_565  S
O1461      C1471   1.276       .  A
O1462     Cu1469   1.985       .  S
O1462      C1472   1.276       .  A
O1463     Cu1469   1.956       .  S
O1463      C1473   1.272       .  A
O1464     Cu1469   1.956       .  S
O1464      C1474   1.272       .  A
O1465     Cu1470   2.053       .  S
O1465      C1474   1.283       .  A
O1466     Cu1470   2.053       .  S
O1466      C1473   1.283       .  A
O1467     Cu1470   2.034       .  S
O1467      C1472   1.280       .  A
O1468     Cu1470   2.035   1_565  S
O1468      C1471   1.280       .  A
Cu1469    Cu1470   2.367       .  S
C1471      C2414   1.484       .  S
C1472      C1503   1.483       .  S
C1473      C1512   1.483       .  S
C1474      C2291   1.483       .  S
O1475     Cu1483   1.989       .  S
O1475      C1485   1.276       .  A
O1476     Cu1483   1.983       .  S
O1476      C1486   1.276       .  A
O1477     Cu1483   1.995       .  S
O1477      C1487   1.277       .  A
O1478     Cu1483   1.997       .  S
O1478      C1488   1.277       .  A
O1479     Cu1484   2.020       .  S
O1479      C1488   1.278       .  A
O1480     Cu1484   2.025       .  S
O1480      C1487   1.280       .  A
O1481     Cu1484   2.035       .  S
O1481      C1486   1.281       .  A
O1482     Cu1484   2.029       .  S
O1482      C1485   1.280       .  A
Cu1483    Cu1484   2.370       .  S
C1485      C2395   1.483       .  S
C1486      C1559   1.480       .  S
C1487      C2437   1.482       .  S
C1488      C1493   1.472       .  S
C1489      C1490   1.404       .  A
C1489      C1494   1.393       .  A
C1489      H1495   1.083       .  S
C1490      C1491   1.405       .  A
C1491      C1492   1.403       .  A
C1491      H1496   1.083       .  S
C1492      C1493   1.405       .  A
C1492      H1497   1.083       .  S
C1493      C1494   1.401       .  A
C1494      H1498   1.084       .  S
C1499      C1500   1.409       .  A
C1499      C1504   1.407       .  A
C1499      H1505   1.082       .  S
C1500      C1501   1.406       .  A
C1501      C1502   1.389       .  A
C1501      H1506   1.079       .  S
C1502      C1503   1.403       .  A
C1502      H1507   1.083       .  S
C1503      C1504   1.407       .  A
C1504      H1508   1.083       .  S
C1509      C1510   1.205       .  T
C1511      C1512   1.405       .  A
C1511      C1516   1.385       .  A
C1511      H1517   1.083       .  S
C1512      C1513   1.406       .  A
C1513      C1514   1.409       .  A
C1513      H1518   1.082       .  S
C1514      C1515   1.411       .  A
C1514      H1519   1.082       .  S
C1515      C1516   1.402       .  A
C1516      H1520   1.078       .  S
C1521      C1522   1.410       .  A
C1521      C1526   1.408       .  A
C1521      H1527   1.082       .  S
C1522      C1523   1.403       .  A
C1523      C1524   1.386       .  A
C1523      H1528   1.078       .  S
C1524      C1525   1.403       .  A
C1524      H1529   1.083       .  S
C1525      C1526   1.406       .  A
C1526      H1530   1.082       .  S
C1531      C1532   1.202       .  T
C1533      C1534   1.403       .  A
C1533      C1538   1.385   1_554  A
C1533      H1539   1.079   1_554  S
C1534      C1535   1.411       .  A
C1535      C1536   1.408       .  A
C1535      H1540   1.082       .  S
C1536      C1537   1.406   1_554  A
C1536      H1541   1.082       .  S
C1537      C1538   1.404       .  A
C1538      H1542   1.083       .  S
C1543      C1544   1.202       .  T
C1545      C1546   1.406   1_556  A
C1545      C1550   1.409   1_556  A
C1545      H1551   1.082       .  S
C1546      C1547   1.405       .  A
C1547      C1548   1.385       .  A
C1547      H1552   1.083       .  S
C1548      C1549   1.402       .  A
C1548      H1553   1.079       .  S
C1549      C1550   1.412       .  A
C1550      H1554   1.082       .  S
C1555      C1556   1.404       .  A
C1555      C1560   1.390       .  A
C1555      H1561   1.082       .  S
C1556      C1557   1.408       .  A
C1557      C1558   1.406       .  A
C1557      H1562   1.082       .  S
C1558      C1559   1.406       .  A
C1558      H1563   1.083       .  S
C1559      C1560   1.403       .  A
C1560      H1564   1.083       .  S
C1565      C1566   1.406       .  A
C1565      C1570   1.389       .  A
C1565      H1571   1.079       .  S
C1566      C1567   1.409       .  A
C1567      C1568   1.407       .  A
C1567      H1572   1.082       .  S
C1568      C1569   1.407       .  A
C1568      H1573   1.083       .  S
C1569      C1570   1.403       .  A
C1570      H1574   1.083       .  S
C1575      C1576   1.205       .  T
C1577      C1578   1.407       .  A
C1577      C1582   1.409       .  A
C1577      H1583   1.083       .  S
C1578      C1579   1.403       .  A
C1579      C1580   1.386       .  A
C1579      H1584   1.083       .  S
C1580      C1581   1.404       .  A
C1580      H1585   1.079       .  S
C1581      C1582   1.410       .  A
C1582      H1586   1.082       .  S
C1587      C1588   1.403       .  A
C1587      C1592   1.386       .  A
C1587      H1593   1.083       .  S
C1588      C1589   1.407       .  A
C1589      C1590   1.409       .  A
C1589      H1594   1.083       .  S
C1590      C1591   1.411       .  A
C1590      H1595   1.082       .  S
C1591      C1592   1.404       .  A
C1592      H1596   1.079       .  S
C1597      C1598   1.407       .  A
C1597      C1602   1.407       .  A
C1597      H1603   1.083       .  S
C1598      C1599   1.402       .  A
C1599      C1600   1.387       .  A
C1599      H1604   1.083       .  S
C1600      C1601   1.404       .  A
C1600      H1605   1.080       .  S
C1601      C1602   1.409       .  A
C1602      H1606   1.082       .  S
C1607      C1608   1.403       .  A
C1607      C1612   1.386       .  A
C1607      H1613   1.078       .  S
C1608      C1609   1.412       .  A
C1609      C1610   1.410       .  A
C1609      H1614   1.082       .  S
C1610      C1611   1.407       .  A
C1610      H1615   1.082       .  S
C1611      C1612   1.405       .  A
C1612      H1616   1.083       .  S
C1617      C1618   1.404       .  A
C1617      C1622   1.389       .  A
C1617      H1623   1.079       .  S
C1618      C1619   1.411       .  A
C1619      C1620   1.407       .  A
C1619      H1624   1.082       .  S
C1620      C1621   1.406       .  A
C1620      H1625   1.083       .  S
C1621      C1622   1.404       .  A
C1622      H1626   1.083       .  S
C1627      C1628   1.407       .  A
C1627      C1632   1.408       .  A
C1627      H1633   1.083       .  S
C1628      C1629   1.403       .  A
C1629      C1630   1.385       .  A
C1629      H1634   1.083       .  S
C1630      C1631   1.403       .  A
C1630      H1635   1.081       .  S
C1631      C1632   1.408       .  A
C1632      H1636   1.083       .  S
C1637      C1638   1.407       .  A
C1637      C1642   1.391       .  A
C1637      H1643   1.079       .  S
C1638      C1639   1.408       .  A
C1639      C1640   1.404       .  A
C1639      H1644   1.082       .  S
C1640      C1641   1.406       .  A
C1640      H1645   1.082       .  S
C1641      C1642   1.403       .  A
C1642      H1646   1.083       .  S
C1647      C1648   1.203       .  T
C1649      C1650   1.407   1_556  A
C1649      C1654   1.408       .  A
C1649      H1655   1.083       .  S
C1650      C1651   1.404       .  A
C1651      C1652   1.389       .  A
C1651      H1656   1.083       .  S
C1652      C1653   1.404       .  A
C1652      H1657   1.080       .  S
C1653      C1654   1.410   1_554  A
C1654      H1658   1.082       .  S
C1659      C1660   1.404       .  A
C1659      C1664   1.388       .  A
C1659      H1665   1.083       .  S
C1660      C1661   1.407       .  A
C1661      C1662   1.408       .  A
C1661      H1666   1.083       .  S
C1662      C1663   1.410       .  A
C1662      H1667   1.082       .  S
C1663      C1664   1.404       .  A
C1664      H1668   1.079       .  S
C1669      C1670   1.402       .  A
C1669      C1674   1.394       .  A
C1669      H1675   1.083       .  S
C1670      C1671   1.408   1_455  A
C1671      C1672   1.406       .  A
C1671      H1676   1.083       .  S
C1672      C1673   1.404   1_655  A
C1672      H1677   1.083       .  S
C1673      C1674   1.403       .  A
C1674      H1678   1.083       .  S
C1679      C1680   1.403       .  A
C1679      C1684   1.391       .  A
C1679      H1685   1.082       .  S
C1680      C1681   1.408   1_655  A
C1681      C1682   1.405       .  A
C1681      H1686   1.082       .  S
C1682      C1683   1.405   1_455  A
C1682      H1687   1.083       .  S
C1683      C1684   1.403       .  A
C1684      H1688   1.083       .  S
C1689      C1690   1.402   1_455  A
C1689      C1694   1.391       .  A
C1689      H1695   1.083       .  S
C1690      C1691   1.407       .  A
C1691      C1692   1.405       .  A
C1691      H1696   1.083       .  S
C1692      C1693   1.405       .  A
C1692      H1697   1.083       .  S
C1693      C1694   1.402   1_655  A
C1694      H1698   1.083       .  S
C1699      C1700   1.205       .  T
C1701      C1702   1.404       .  A
C1701      C1706   1.387       .  A
C1701      H1707   1.079       .  S
C1702      C1703   1.410       .  A
C1703      C1704   1.408       .  A
C1703      H1708   1.082       .  S
C1704      C1705   1.407       .  A
C1704      H1709   1.083       .  S
C1705      C1706   1.404       .  A
C1706      H1710   1.083       .  S
C1711      C1712   1.410       .  A
C1711      C1716   1.409       .  A
C1711      H1717   1.082       .  S
C1712      C1713   1.404       .  A
C1713      C1714   1.388       .  A
C1713      H1718   1.080       .  S
C1714      C1715   1.404       .  A
C1714      H1719   1.083       .  S
C1715      C1716   1.407       .  A
C1716      H1720   1.083       .  S
C1721      C1722   1.205       .  T
C1723      C1724   1.409   1_556  A
C1723      C1728   1.407       .  A
C1723      H1729   1.082       .  S
C1724      C1725   1.405       .  A
C1725      C1726   1.388       .  A
C1725      H1730   1.079       .  S
C1726      C1727   1.403       .  A
C1726      H1731   1.083       .  S
C1727      C1728   1.407   1_554  A
C1728      H1732   1.083       .  S
C1733      C1734   1.404       .  A
C1733      C1738   1.387       .  A
C1733      H1739   1.079       .  S
C1734      C1735   1.410       .  A
C1735      C1736   1.408       .  A
C1735      H1740   1.082       .  S
C1736      C1737   1.407       .  A
C1736      H1741   1.083       .  S
C1737      C1738   1.404       .  A
C1738      H1742   1.083       .  S
C1743      C1744   1.407   1_556  A
C1743      C1748   1.409       .  A
C1743      H1749   1.083       .  S
C1744      C1745   1.404       .  A
C1745      C1746   1.388       .  A
C1745      H1750   1.083       .  S
C1746      C1747   1.405       .  A
C1746      H1751   1.079       .  S
C1747      C1748   1.410   1_554  A
C1748      H1752   1.082       .  S
C1753      C1754   1.205       .  T
C1755      C1756   1.403       .  A
C1755      C1760   1.388       .  A
C1755      H1761   1.083       .  S
C1756      C1757   1.407       .  A
C1757      C1758   1.407       .  A
C1757      H1762   1.083       .  S
C1758      C1759   1.409       .  A
C1758      H1763   1.082       .  S
C1759      C1760   1.405       .  A
C1760      H1764   1.079       .  S
C1765      C1766   1.403       .  A
C1765      C1770   1.385       .  A
C1765      H1771   1.083       .  S
C1766      C1767   1.407       .  A
C1767      C1768   1.408       .  A
C1767      H1772   1.083       .  S
C1768      C1769   1.410       .  A
C1768      H1773   1.082       .  S
C1769      C1770   1.404       .  A
C1770      H1774   1.079       .  S
C1775      C1776   1.405       .  A
C1775      C1780   1.392       .  A
C1775      H1781   1.083       .  S
C1776      C1777   1.405       .  A
C1777      C1778   1.408       .  A
C1777      H1782   1.083   1_455  S
C1778      C1779   1.411       .  A
C1778      H1783   1.082   1_455  S
C1779      C1780   1.402       .  A
C1780      H1784   1.082       .  S
C1785      C1786   1.412       .  A
C1785      C1790   1.410       .  A
C1785      H1791   1.082       .  S
C1786      C1787   1.403       .  A
C1787      C1788   1.386       .  A
C1787      H1792   1.079       .  S
C1788      C1789   1.405       .  A
C1788      H1793   1.083       .  S
C1789      C1790   1.407       .  A
C1790      H1794   1.082       .  S
C1795      C1796   1.404       .  A
C1795      C1800   1.389       .  A
C1795      H1801   1.079       .  S
C1796      C1797   1.411       .  A
C1797      C1798   1.407       .  A
C1797      H1802   1.082       .  S
C1798      C1799   1.406       .  A
C1798      H1803   1.083       .  S
C1799      C1800   1.405       .  A
C1800      H1804   1.083       .  S
C1805      C1806   1.410       .  A
C1805      C1810   1.409       .  A
C1805      H1811   1.082       .  S
C1806      C1807   1.404       .  A
C1807      C1808   1.382       .  A
C1807      H1812   1.077       .  S
C1808      C1809   1.402       .  A
C1808      H1813   1.083       .  S
C1809      C1810   1.407       .  A
C1810      H1814   1.082       .  S
C1815      C1816   1.407       .  A
C1815      C1820   1.391       .  A
C1815      H1821   1.079       .  S
C1816      C1817   1.407       .  A
C1817      C1818   1.403       .  A
C1817      H1822   1.082       .  S
C1818      C1819   1.406       .  A
C1818      H1823   1.083       .  S
C1819      C1820   1.403       .  A
C1820      H1824   1.083       .  S
C1825      C1826   1.203       .  T
C1827      C1828   1.404       .  A
C1827      C1832   1.388       .  A
C1827      H1833   1.083       .  S
C1828      C1829   1.406       .  A
C1829      C1830   1.408       .  A
C1829      H1834   1.083       .  S
C1830      C1831   1.411       .  A
C1830      H1835   1.082       .  S
C1831      C1832   1.404       .  A
C1832      H1836   1.079       .  S
C1837      C1838   1.405   1_556  A
C1837      C1842   1.387       .  A
C1837      H1843   1.079       .  S
C1838      C1839   1.410       .  A
C1839      C1840   1.409       .  A
C1839      H1844   1.082       .  S
C1840      C1841   1.407       .  A
C1840      H1845   1.083       .  S
C1841      C1842   1.403   1_554  A
C1842      H1846   1.083       .  S
C1847      C1848   1.404       .  A
C1847      C1852   1.389       .  A
C1847      H1853   1.083       .  S
C1848      C1849   1.406       .  A
C1849      C1850   1.407       .  A
C1849      H1854   1.083       .  S
C1850      C1851   1.410       .  A
C1850      H1855   1.082       .  S
C1851      C1852   1.405       .  A
C1852      H1856   1.079       .  S
C1857      C1858   1.407       .  A
C1857      C1862   1.410       .  A
C1857      H1863   1.083       .  S
C1858      C1859   1.404       .  A
C1859      C1860   1.386       .  A
C1859      H1864   1.083       .  S
C1860      C1861   1.404       .  A
C1860      H1865   1.079       .  S
C1861      C1862   1.411       .  A
C1862      H1866   1.082       .  S
C1867      C1868   1.403       .  A
C1867      C1872   1.388       .  A
C1867      H1873   1.083       .  S
C1868      C1869   1.406       .  A
C1869      C1870   1.407       .  A
C1869      H1874   1.083       .  S
C1870      C1871   1.409       .  A
C1870      H1875   1.082       .  S
C1871      C1872   1.404       .  A
C1872      H1876   1.080       .  S
C1877      C1878   1.404       .  A
C1877      C1882   1.388       .  A
C1877      H1883   1.080       .  S
C1878      C1879   1.409       .  A
C1879      C1880   1.407       .  A
C1879      H1884   1.082       .  S
C1880      C1881   1.407       .  A
C1880      H1885   1.083       .  S
C1881      C1882   1.403       .  A
C1882      H1886   1.083       .  S
C1887      C1888   1.403       .  A
C1887      C1892   1.389       .  A
C1887      H1893   1.082       .  S
C1888      C1889   1.408       .  A
C1889      C1890   1.405       .  A
C1889      H1894   1.083       .  S
C1890      C1891   1.406       .  A
C1890      H1895   1.083       .  S
C1891      C1892   1.403       .  A
C1892      H1896   1.084       .  S
C1897      C1898   1.403       .  A
C1897      C1902   1.389       .  A
C1897      H1903   1.082       .  S
C1898      C1899   1.408       .  A
C1899      C1900   1.405       .  A
C1899      H1904   1.083       .  S
C1900      C1901   1.406       .  A
C1900      H1905   1.083       .  S
C1901      C1902   1.403       .  A
C1902      H1906   1.083       .  S
C1907      C1908   1.203       .  T
C1909      C1910   1.405       .  A
C1909      C1914   1.389       .  A
C1909      H1915   1.083       .  S
C1910      C1911   1.406       .  A
C1911      C1912   1.408       .  A
C1911      H1916   1.083       .  S
C1912      C1913   1.411       .  A
C1912      H1917   1.082       .  S
C1913      C1914   1.404       .  A
C1914      H1918   1.080       .  S
C1919      C1920   1.412       .  A
C1919      C1924   1.410       .  A
C1919      H1925   1.082       .  S
C1920      C1921   1.403       .  A
C1921      C1922   1.386       .  A
C1921      H1926   1.078       .  S
C1922      C1923   1.405       .  A
C1922      H1927   1.083       .  S
C1923      C1924   1.407       .  A
C1924      H1928   1.082       .  S
C1929      C1930   1.404       .  A
C1929      C1934   1.382       .  A
C1929      H1935   1.077       .  S
C1930      C1931   1.410       .  A
C1931      C1932   1.410       .  A
C1931      H1936   1.082       .  S
C1932      C1933   1.408       .  A
C1932      H1937   1.082       .  S
C1933      C1934   1.402       .  A
C1934      H1938   1.083       .  S
C1939      C1940   1.407       .  A
C1939      C1944   1.403       .  A
C1939      H1945   1.082       .  S
C1940      C1941   1.407       .  A
C1941      C1942   1.391       .  A
C1941      H1946   1.080       .  S
C1942      C1943   1.403       .  A
C1942      H1947   1.083       .  S
C1943      C1944   1.406       .  A
C1944      H1948   1.083       .  S
C1949      C1950   1.204       .  T
C1951      C1952   1.402       .  A
C1951      C1956   1.392       .  A
C1951      H1957   1.082       .  S
C1952      C1953   1.410   1_455  A
C1953      C1954   1.407       .  A
C1953      H1958   1.083       .  S
C1954      C1955   1.405   1_655  A
C1954      H1959   1.083       .  S
C1955      C1956   1.404       .  A
C1956      H1960   1.084       .  S
C1961      C1962   1.410       .  A
C1961      C1966   1.408       .  A
C1961      H1967   1.082   1_455  S
C1962      C1963   1.403       .  A
C1963      C1964   1.392       .  A
C1963      H1968   1.082       .  S
C1964      C1965   1.404       .  A
C1964      H1969   1.083       .  S
C1965      C1966   1.406       .  A
C1966      H1970   1.083   1_455  S
C1971      C1972   1.404       .  A
C1971      C1976   1.390       .  A
C1971      H1977   1.082       .  S
C1972      C1973   1.408   1_655  A
C1973      C1974   1.405       .  A
C1973      H1978   1.082       .  S
C1974      C1975   1.405   1_455  A
C1974      H1979   1.083       .  S
C1975      C1976   1.402       .  A
C1976      H1980   1.084       .  S
C1981      C1982   1.408   1_455  A
C1981      C1986   1.405       .  A
C1981      H1987   1.082       .  S
C1982      C1983   1.405       .  A
C1983      C1984   1.391       .  A
C1983      H1988   1.081       .  S
C1984      C1985   1.403       .  A
C1984      H1989   1.083       .  S
C1985      C1986   1.406   1_655  A
C1986      H1990   1.083       .  S
C1991      C1992   1.206       .  T
C1993      C1994   1.405       .  A
C1993      C1998   1.389       .  A
C1993      H1999   1.079       .  S
C1994      C1995   1.409   1_554  A
C1995      C1996   1.407       .  A
C1995      H2000   1.082       .  S
C1996      C1997   1.407   1_556  A
C1996      H2001   1.083       .  S
C1997      C1998   1.403       .  A
C1998      H2002   1.083       .  S
C2003      C2004   1.405       .  A
C2003      C2008   1.389       .  A
C2003      H2009   1.080       .  S
C2004      C2005   1.410   1_554  A
C2005      C2006   1.408       .  A
C2005      H2010   1.082       .  S
C2006      C2007   1.407   1_556  A
C2006      H2011   1.083       .  S
C2007      C2008   1.404       .  A
C2008      H2012   1.083       .  S
C2013      C2014   1.410       .  A
C2013      C2018   1.408       .  A
C2013      H2019   1.082   1_554  S
C2014      C2015   1.404       .  A
C2015      C2016   1.387       .  A
C2015      H2020   1.079       .  S
C2016      C2017   1.404       .  A
C2016      H2021   1.083       .  S
C2017      C2018   1.407       .  A
C2018      H2022   1.083   1_554  S
C2023      C2024   1.205       .  T
C2025      C2026   1.407       .  A
C2025      C2030   1.410       .  A
C2025      H2031   1.083   1_554  S
C2026      C2027   1.404       .  A
C2027      C2028   1.386       .  A
C2027      H2032   1.083       .  S
C2028      C2029   1.404       .  A
C2028      H2033   1.079       .  S
C2029      C2030   1.411       .  A
C2030      H2034   1.082   1_554  S
C2035      C2036   1.405       .  A
C2035      C2040   1.402       .  A
C2035      H2041   1.083       .  S
C2036      C2037   1.401       .  A
C2037      C2038   1.394       .  A
C2037      H2042   1.083       .  S
C2038      C2039   1.401       .  A
C2038      H2043   1.084       .  S
C2039      C2040   1.403       .  A
C2040      H2044   1.083       .  S
C2045      C2046   1.408       .  A
C2045      C2050   1.405       .  A
C2045      H2051   1.083       .  S
C2046      C2047   1.402       .  A
C2047      C2048   1.390       .  A
C2047      H2052   1.082       .  S
C2048      C2049   1.403       .  A
C2048      H2053   1.083       .  S
C2049      C2050   1.405       .  A
C2050      H2054   1.083       .  S
C2055      C2056   1.408       .  A
C2055      C2060   1.406       .  A
C2055      H2061   1.082       .  S
C2056      C2057   1.403       .  A
C2057      C2058   1.390       .  A
C2057      H2062   1.082       .  S
C2058      C2059   1.403       .  A
C2058      H2063   1.083       .  S
C2059      C2060   1.406       .  A
C2060      H2064   1.083       .  S
C2065      C2066   1.404       .  A
C2065      C2070   1.388       .  A
C2065      H2071   1.081       .  S
C2066      C2067   1.409       .  A
C2067      C2068   1.407       .  A
C2067      H2072   1.082       .  S
C2068      C2069   1.407       .  A
C2068      H2073   1.083       .  S
C2069      C2070   1.404       .  A
C2070      H2074   1.083       .  S
C2075      C2076   1.204       .  T
C2077      C2078   1.403       .  A
C2077      C2082   1.386       .  A
C2077      H2083   1.079       .  S
C2078      C2079   1.412       .  A
C2079      C2080   1.410       .  A
C2079      H2084   1.082       .  S
C2080      C2081   1.407       .  A
C2080      H2085   1.083       .  S
C2081      C2082   1.405       .  A
C2082      H2086   1.083       .  S
C2087      C2088   1.404       .  A
C2087      C2092   1.390       .  A
C2087      H2093   1.083       .  S
C2088      C2089   1.407       .  A
C2089      C2090   1.408       .  A
C2089      H2094   1.083       .  S
C2090      C2091   1.410       .  A
C2090      H2095   1.082       .  S
C2091      C2092   1.405       .  A
C2092      H2096   1.080       .  S
C2097      C2098   1.407       .  A
C2097      C2102   1.407       .  A
C2097      H2103   1.082       .  S
C2098      C2099   1.403       .  A
C2099      C2100   1.387       .  A
C2099      H2104   1.082       .  S
C2100      C2101   1.402       .  A
C2100      H2105   1.083       .  S
C2101      C2102   1.407       .  A
C2102      H2106   1.083       .  S
C2107      C2108   1.407       .  A
C2107      C2112   1.391       .  A
C2107      H2113   1.080       .  S
C2108      C2109   1.408       .  A
C2109      C2110   1.404       .  A
C2109      H2114   1.081       .  S
C2110      C2111   1.406       .  A
C2110      H2115   1.083       .  S
C2111      C2112   1.403       .  A
C2112      H2116   1.083       .  S
C2117      C2118   1.205       .  T
C2119      C2120   1.409       .  A
C2119      C2124   1.407       .  A
C2119      H2125   1.082       .  S
C2120      C2121   1.405       .  A
C2121      C2122   1.388       .  A
C2121      H2126   1.079       .  S
C2122      C2123   1.403       .  A
C2122      H2127   1.083       .  S
C2123      C2124   1.407       .  A
C2124      H2128   1.082       .  S
C2129      C2130   1.410       .  A
C2129      C2134   1.409       .  A
C2129      H2135   1.082       .  S
C2130      C2131   1.405       .  A
C2131      C2132   1.388       .  A
C2131      H2136   1.079       .  S
C2132      C2133   1.404       .  A
C2132      H2137   1.083       .  S
C2133      C2134   1.407       .  A
C2134      H2138   1.083       .  S
C2139      C2140   1.410       .  A
C2139      C2144   1.408       .  A
C2139      H2145   1.082       .  S
C2140      C2141   1.404       .  A
C2141      C2142   1.387       .  A
C2141      H2146   1.078       .  S
C2142      C2143   1.404       .  A
C2142      H2147   1.083       .  S
C2143      C2144   1.407       .  A
C2144      H2148   1.082       .  S
C2149      C2150   1.205       .  T
C2151      C2152   1.402   1_655  A
C2151      C2156   1.391       .  A
C2151      H2157   1.082       .  S
C2152      C2153   1.410       .  A
C2153      C2154   1.409       .  A
C2153      H2158   1.083       .  S
C2154      C2155   1.406       .  A
C2154      H2159   1.083       .  S
C2155      C2156   1.405   1_455  A
C2156      H2160   1.083       .  S
C2161      C2162   1.409   1_655  A
C2161      C2166   1.407       .  A
C2161      H2167   1.083       .  S
C2162      C2163   1.402       .  A
C2163      C2164   1.393       .  A
C2163      H2168   1.083       .  S
C2164      C2165   1.404       .  A
C2164      H2169   1.084       .  S
C2165      C2166   1.405   1_455  A
C2166      H2170   1.083       .  S
C2171      C2172   1.404       .  A
C2171      C2176   1.390       .  A
C2171      H2177   1.082       .  S
C2172      C2173   1.408   1_655  A
C2173      C2174   1.406       .  A
C2173      H2178   1.083       .  S
C2174      C2175   1.406   1_455  A
C2174      H2179   1.083       .  S
C2175      C2176   1.403       .  A
C2176      H2180   1.084       .  S
C2181      C2182   1.403   1_455  A
C2181      C2186   1.390       .  A
C2181      H2187   1.083       .  S
C2182      C2183   1.406       .  A
C2183      C2184   1.406       .  A
C2183      H2188   1.083       .  S
C2184      C2185   1.408       .  A
C2184      H2189   1.083       .  S
C2185      C2186   1.403   1_655  A
C2186      H2190   1.082       .  S
C2191      C2192   1.206       .  T
C2193      C2194   1.404       .  A
C2193      C2198   1.386       .  A
C2193      H2199   1.083       .  S
C2194      C2195   1.407       .  A
C2195      C2196   1.410       .  A
C2195      H2200   1.082       .  S
C2196      C2197   1.411       .  A
C2196      H2201   1.082       .  S
C2197      C2198   1.404       .  A
C2198      H2202   1.079       .  S
C2203      C2204   1.403       .  A
C2203      C2208   1.389       .  A
C2203      H2209   1.081       .  S
C2204      C2205   1.409       .  A
C2205      C2206   1.407       .  A
C2205      H2210   1.082       .  S
C2206      C2207   1.406       .  A
C2206      H2211   1.083       .  S
C2207      C2208   1.403       .  A
C2208      H2212   1.083       .  S
C2213      C2214   1.409       .  A
C2213      C2218   1.407       .  A
C2213      H2219   1.082       .  S
C2214      C2215   1.403       .  A
C2215      C2216   1.388       .  A
C2215      H2220   1.081       .  S
C2216      C2217   1.404       .  A
C2216      H2221   1.083       .  S
C2217      C2218   1.406       .  A
C2218      H2222   1.083       .  S
C2223      C2224   1.407       .  A
C2223      C2228   1.405       .  A
C2223      H2229   1.082       .  S
C2224      C2225   1.403       .  A
C2225      C2226   1.390       .  A
C2225      H2230   1.082       .  S
C2226      C2227   1.402       .  A
C2226      H2231   1.083       .  S
C2227      C2228   1.405       .  A
C2228      H2232   1.083       .  S
C2233      C2234   1.408       .  A
C2233      C2238   1.405       .  A
C2233      H2239   1.082       .  S
C2234      C2235   1.403       .  A
C2235      C2236   1.389       .  A
C2235      H2240   1.082       .  S
C2236      C2237   1.403       .  A
C2236      H2241   1.083       .  S
C2237      C2238   1.405       .  A
C2238      H2242   1.083       .  S
C2243      C2244   1.204       .  T
C2245      C2246   1.411       .  A
C2245      C2250   1.408       .  A
C2245      H2251   1.082   1_455  S
C2246      C2247   1.403       .  A
C2247      C2248   1.392       .  A
C2247      H2252   1.081       .  S
C2248      C2249   1.405       .  A
C2248      H2253   1.083       .  S
C2249      C2250   1.406       .  A
C2250      H2254   1.083   1_455  S
C2255      C2256   1.410   1_655  A
C2255      C2260   1.407       .  A
C2255      H2261   1.082       .  S
C2256      C2257   1.403       .  A
C2257      C2258   1.392       .  A
C2257      H2262   1.082       .  S
C2258      C2259   1.404       .  A
C2258      H2263   1.083       .  S
C2259      C2260   1.405   1_455  A
C2260      H2264   1.083       .  S
C2265      C2266   1.404       .  A
C2265      C2270   1.391       .  A
C2265      H2271   1.081       .  S
C2266      C2267   1.408   1_655  A
C2267      C2268   1.406       .  A
C2267      H2272   1.082       .  S
C2268      C2269   1.406   1_455  A
C2268      H2273   1.083       .  S
C2269      C2270   1.403       .  A
C2270      H2274   1.083       .  S
C2275      C2276   1.404       .  A
C2275      C2280   1.391       .  A
C2275      H2281   1.082       .  S
C2276      C2277   1.408   1_655  A
C2277      C2278   1.406       .  A
C2277      H2282   1.082       .  S
C2278      C2279   1.406   1_455  A
C2278      H2283   1.083       .  S
C2279      C2280   1.402       .  A
C2280      H2284   1.083       .  S
C2285      C2286   1.206       .  T
C2287      C2288   1.412       .  A
C2287      C2292   1.409       .  A
C2287      H2293   1.082       .  S
C2288      C2289   1.402       .  A
C2289      C2290   1.385       .  A
C2289      H2294   1.079       .  S
C2290      C2291   1.405       .  A
C2290      H2295   1.083       .  S
C2291      C2292   1.406       .  A
C2292      H2296   1.083       .  S
C2297      C2298   1.405       .  A
C2297      C2302   1.390       .  A
C2297      H2303   1.080       .  S
C2298      C2299   1.410       .  A
C2299      C2300   1.407       .  A
C2299      H2304   1.082       .  S
C2300      C2301   1.406       .  A
C2300      H2305   1.083       .  S
C2301      C2302   1.404       .  A
C2302      H2306   1.083       .  S
C2307      C2308   1.409       .  A
C2307      C2312   1.407       .  A
C2307      H2313   1.082       .  S
C2308      C2309   1.402   1_545  A
C2309      C2310   1.387       .  A
C2309      H2314   1.081       .  S
C2310      C2311   1.404   1_565  A
C2310      H2315   1.083       .  S
C2311      C2312   1.406       .  A
C2312      H2316   1.083       .  S
C2317      C2318   1.411       .  A
C2317      C2322   1.409       .  A
C2317      H2323   1.082       .  S
C2318      C2319   1.404       .  A
C2319      C2320   1.388       .  A
C2319      H2324   1.079       .  S
C2320      C2321   1.405       .  A
C2320      H2325   1.083       .  S
C2321      C2322   1.407       .  A
C2322      H2326   1.083       .  S
C2327      C2328   1.203       .  T
C2329      C2330   1.402   1_556  A
C2329      C2334   1.385       .  A
C2329      H2335   1.079       .  S
C2330      C2331   1.411       .  A
C2331      C2332   1.409       .  A
C2331      H2336   1.082       .  S
C2332      C2333   1.406   1_554  A
C2332      H2337   1.082       .  S
C2333      C2334   1.405       .  A
C2334      H2338   1.083       .  S
C2339      C2340   1.404       .  A
C2339      C2344   1.389       .  A
C2339      H2345   1.079       .  S
C2340      C2341   1.410       .  A
C2341      C2342   1.408       .  A
C2341      H2346   1.082       .  S
C2342      C2343   1.406       .  A
C2342      H2347   1.083       .  S
C2343      C2344   1.404       .  A
C2344      H2348   1.083       .  S
C2349      C2350   1.411       .  A
C2349      C2354   1.409       .  A
C2349      H2355   1.082   1_554  S
C2350      C2351   1.404       .  A
C2351      C2352   1.388       .  A
C2351      H2356   1.079       .  S
C2352      C2353   1.404       .  A
C2352      H2357   1.083       .  S
C2353      C2354   1.407       .  A
C2354      H2358   1.083   1_554  S
C2359      C2360   1.411   1_556  A
C2359      C2364   1.408       .  A
C2359      H2365   1.082       .  S
C2360      C2361   1.403       .  A
C2361      C2362   1.386       .  A
C2361      H2366   1.079       .  S
C2362      C2363   1.404       .  A
C2362      H2367   1.083       .  S
C2363      C2364   1.406   1_554  A
C2364      H2368   1.083       .  S
C2369      C2370   1.203       .  T
C2371      C2372   1.406       .  A
C2371      C2376   1.389       .  A
C2371      H2377   1.078       .  S
C2372      C2373   1.409       .  A
C2373      C2374   1.408       .  A
C2373      H2378   1.082       .  S
C2374      C2375   1.408       .  A
C2374      H2379   1.082       .  S
C2375      C2376   1.402       .  A
C2376      H2380   1.083       .  S
C2381      C2382   1.405       .  A
C2381      C2386   1.388       .  A
C2381      H2387   1.079       .  S
C2382      C2383   1.410       .  A
C2383      C2384   1.409       .  A
C2383      H2388   1.082       .  S
C2384      C2385   1.408       .  A
C2384      H2389   1.083       .  S
C2385      C2386   1.403       .  A
C2386      H2390   1.083       .  S
C2391      C2392   1.406       .  A
C2391      C2396   1.391       .  A
C2391      H2397   1.079       .  S
C2392      C2393   1.408       .  A
C2393      C2394   1.405       .  A
C2393      H2398   1.082       .  S
C2394      C2395   1.406       .  A
C2394      H2399   1.082       .  S
C2395      C2396   1.403       .  A
C2396      H2400   1.083       .  S
C2401      C2402   1.407       .  A
C2401      C2406   1.405       .  A
C2401      H2407   1.083       .  S
C2402      C2403   1.404       .  A
C2403      C2404   1.389       .  A
C2403      H2408   1.082       .  S
C2404      C2405   1.401       .  A
C2404      H2409   1.084       .  S
C2405      C2406   1.406       .  A
C2406      H2410   1.083       .  S
C2411      C2412   1.206       .  T
C2413      C2414   1.408       .  A
C2413      C2418   1.408       .  A
C2413      H2419   1.082       .  S
C2414      C2415   1.402       .  A
C2415      C2416   1.389       .  A
C2415      H2420   1.083       .  S
C2416      C2417   1.406       .  A
C2416      H2421   1.078       .  S
C2417      C2418   1.409       .  A
C2418      H2422   1.082       .  S
C2423      C2424   1.405       .  A
C2423      C2428   1.388       .  A
C2423      H2429   1.079       .  S
C2424      C2425   1.410       .  A
C2425      C2426   1.409       .  A
C2425      H2430   1.082       .  S
C2426      C2427   1.407       .  A
C2426      H2431   1.083       .  S
C2427      C2428   1.403       .  A
C2428      H2432   1.083       .  S
C2433      C2434   1.406       .  A
C2433      C2438   1.392       .  A
C2433      H2439   1.080       .  S
C2434      C2435   1.407       .  A
C2435      C2436   1.405       .  A
C2435      H2440   1.082       .  S
C2436      C2437   1.407       .  A
C2436      H2441   1.083       .  S
C2437      C2438   1.403       .  A
C2438      H2442   1.083       .  S
C2443      C2444   1.410       .  A
C2443      C2448   1.408       .  A
C2443      H2449   1.082       .  S
C2444      C2445   1.405       .  A
C2445      C2446   1.386       .  A
C2445      H2450   1.079       .  S
C2446      C2447   1.403       .  A
C2446      H2451   1.083       .  S
C2447      C2448   1.407       .  A
C2448      H2452   1.083       .  S
C2453      C2454   1.206       .  T
C2455      C2456   1.404       .  A
C2455      C2460   1.390       .  A
C2455      H2461   1.081       .  S
C2456      C2457   1.408       .  A
C2457      C2458   1.406       .  A
C2457      H2462   1.083       .  S
C2458      C2459   1.406       .  A
C2458      H2463   1.083       .  S
C2459      C2460   1.403       .  A
C2460      H2464   1.083       .  S
C2465      C2466   1.409       .  A
C2465      C2470   1.407       .  A
C2465      H2471   1.082       .  S
C2466      C2467   1.403       .  A
C2467      C2468   1.389       .  A
C2467      H2472   1.081       .  S
C2468      C2469   1.404       .  A
C2468      H2473   1.083       .  S
C2469      C2470   1.407       .  A
C2470      H2474   1.083       .  S
C2475      C2476   1.405       .  A
C2475      C2480   1.390       .  A
C2475      H2481   1.081       .  S
C2476      C2477   1.408       .  A
C2477      C2478   1.405       .  A
C2477      H2482   1.082       .  S
C2478      C2479   1.406       .  A
C2478      H2483   1.083       .  S
C2479      C2480   1.402       .  A
C2480      H2484   1.083       .  S
C2485      C2486   1.408       .  A
C2485      C2490   1.405       .  A
C2485      H2491   1.082       .  S
C2486      C2487   1.404       .  A
C2487      C2488   1.390       .  A
C2487      H2492   1.082       .  S
C2488      C2489   1.403       .  A
C2488      H2493   1.083       .  S
C2489      C2490   1.406       .  A
C2490      H2494   1.083       .  S
C2495      C2496   1.205       .  T
