geometry optimzed in LAMMPS
_audit_creation_date              2020-12-01 
_audit_creation_method            'lammps2cif' 
_symmetry_space_group_name_H-M    'P1' 
_symmetry_Int_Tables_number       1 
_symmetry_cell_setting            triclinic 
loop_ 
_symmetry_equiv_pos_as_xyz 
  x,y,z 
_cell_length_a                    29.29952575 
_cell_length_b                    29.253532999465083 
_cell_length_c                    29.395719666622444 
_cell_angle_alpha                 89.76304547611235 
_cell_angle_beta                  90.04685041334291 
_cell_angle_gamma                 90.08978699626178 
loop_ 
_atom_site_label 
_atom_site_type_symbol 
_atom_site_fract_x 
_atom_site_fract_y 
_atom_site_fract_z 
_atom_site_charge 
C1          C  0.42678361  0.60202960  0.87421200     0.42600
N2          N  0.44259462  0.55605062  0.92867057     0.01500
C3          C  0.63455167  0.55157219  0.06357418    -0.06300
H4          H  0.66511882  0.52760876  0.88605674     0.07000
C5          C  0.56996911  0.38685461  0.89424438    -0.06700
Co6        Co  0.52747842  0.58355595  0.97697686     0.74200
N7          N  0.60758377  0.54474151  0.92841243    -0.25900
Co8        Co  0.60514234  0.49487963  0.97883287     0.74100
C9          C  0.60986654  0.40382723  0.86959158     0.42700
N10         N  0.46539213  0.42016918  0.93032804     0.01200
N11         N  0.60014244  0.44409242  0.92962675     0.01300
N12         N  0.58268588  0.60862164  0.06104755    -0.46700
H13         H  0.49189203  0.64452132  0.88683847     0.07000
N14         N  0.57763844  0.57833746  0.92722791     0.01500
N15         N  0.60015888  0.44534701  0.02963563     0.01300
C16         C  0.61051290  0.40539533  0.08992065     0.42900
N17         N  0.43630090  0.45456107  0.92963926    -0.25300
C18         C  0.47258450  0.61512157  0.06089420    -0.06200
N19         N  0.41209838  0.56437954  0.89651924    -0.46400
N20         N  0.62748086  0.44049359  0.06523361    -0.46700
C21         C  0.43167863  0.59954638  0.08446639     0.42700
N22         N  0.57755472  0.58002443  0.02668091     0.01500
N23         N  0.43647287  0.45517753  0.02843148    -0.25300
N24         N  0.47656019  0.58567250  0.92832415    -0.25800
N25         N  0.46598736  0.42125272  0.02908501     0.01200
H26         H  0.37917130  0.47229057  0.07053653     0.07100
H27         H  0.54733492  0.36095355  0.07514788     0.07100
N28         N  0.60717145  0.54620479  0.02752549    -0.25900
N29         N  0.56629289  0.41437618  0.93027272    -0.25500
N30         N  0.44367825  0.55612691  0.02749860     0.01500
C31         C  0.62097649  0.59073356  0.86990552     0.42900
C32         C  0.40755419  0.44905551  0.89470126    -0.06800
N33         N  0.56641803  0.41546400  0.02952841    -0.25500
H34         H  0.54695014  0.35908353  0.88651476     0.07100
N35         N  0.58451514  0.60681132  0.89282331    -0.46700
H36         H  0.37975226  0.47164837  0.88576293     0.07100
C37         C  0.42249215  0.40806889  0.08606923     0.42800
C38         C  0.46978051  0.61600444  0.89487248    -0.06300
Co39       Co  0.43863061  0.50553975  0.97850015     0.73800
N40         N  0.45796949  0.39046627  0.89729156    -0.46400
C41         C  0.61796950  0.59296185  0.08600625     0.43000
N42         N  0.41530901  0.56308973  0.06170899    -0.46400
Co43       Co  0.51612268  0.41651606  0.97980629     0.73900
C44         C  0.57037942  0.38834004  0.06604613    -0.06800
C45         C  0.63670846  0.54983761  0.89367009    -0.06300
N46         N  0.47741909  0.58597376  0.02642212    -0.25800
N47         N  0.62704694  0.43895571  0.89391123    -0.46600
H48         H  0.66186884  0.52866759  0.07311515     0.07000
C49         C  0.40742098  0.44982366  0.06307645    -0.06700
Cl50       Cl  0.52180459  0.50012810  0.97842725    -0.49700
C51         C  0.42191476  0.40647165  0.87357038     0.42800
H52         H  0.49508939  0.64339431  0.06829067     0.07000
N53         N  0.45884902  0.39224924  0.06294582    -0.46400
C54         C  0.42595655  0.89248880  0.56877653     0.42600
N55         N  0.46452675  0.95401539  0.55924897     0.01500
C56         C  0.47016604  0.08437477  0.36285223    -0.06300
H57         H  0.49714690  0.91007489  0.33962307     0.07000
C58         C  0.63386654  0.91606448  0.43650620    -0.06700
Co59       Co  0.43756782  0.00227008  0.47372333     0.74200
N60         N  0.47823177  0.95224550  0.39600012    -0.25900
Co61       Co  0.52790737  0.00229706  0.39832191     0.74100
C62         C  0.61766408  0.89166899  0.39613186     0.42700
N63         N  0.59888641  0.95514790  0.53992561     0.01200
N64         N  0.57798176  0.95253188  0.40509169     0.01300
N65         N  0.41109320  0.08234582  0.41235181    -0.46700
H66         H  0.38236847  0.90695363  0.50493904     0.07000
N67         N  0.44387710  0.95150842  0.42486250     0.01500
N68         N  0.57780330  0.05231840  0.40293343     0.01300
C69         C  0.62108055  0.10959549  0.38953106     0.42900
N70         N  0.56466185  0.95616490  0.56890930    -0.25300
C71         C  0.40576874  0.08888516  0.52619887    -0.06200
N72         N  0.45984232  0.91819112  0.58650734    -0.46400
N73         N  0.58489058  0.08601067  0.37368712    -0.46700
C74         C  0.42109981  0.11319837  0.56686694     0.42700
N75         N  0.44191098  0.05084262  0.42214194     0.01500
N76         N  0.56359628  0.05577065  0.56537336    -0.25300
N77         N  0.43562527  0.95335972  0.52486365    -0.25800
N78         N  0.59822040  0.05516427  0.53673140     0.01200
H79         H  0.54362300  0.10232228  0.61828491     0.07100
H80         H  0.66413780  0.09597106  0.45375192     0.07100
N81         N  0.47664057  0.05114758  0.39363631    -0.25900
N82         N  0.60683356  0.95280765  0.43949045    -0.25500
N83         N  0.46311803  0.05419173  0.55701462     0.01500
C84         C  0.43351308  0.89286776  0.38279001     0.42900
C85         C  0.56985665  0.92234356  0.59924205    -0.06800
N86         N  0.60724351  0.05234936  0.43687768    -0.25500
H87         H  0.66093362  0.90794780  0.46010360     0.07100
N88         N  0.41595846  0.91664441  0.41793918    -0.46700
H89         H  0.54736383  0.91605255  0.62767262     0.07100
C90         C  0.60784733  0.11654051  0.57500724     0.42800
C91         C  0.40918713  0.91624731  0.52840822    -0.06300
Co92       Co  0.51378361  0.00508661  0.56397217     0.73800
N93         N  0.62786328  0.92159060  0.54859637    -0.46400
C94         C  0.42625645  0.10464382  0.37502288     0.43000
N95         N  0.45636023  0.08930667  0.58433893    -0.46400
Co96       Co  0.60411828  0.00380145  0.48837279     0.73900
C97         C  0.63630013  0.08723577  0.43122704    -0.06800
C98         C  0.47433875  0.91699053  0.36759260    -0.06300
N99         N  0.43411946  0.05318825  0.52272187    -0.25800
N100        N  0.58330025  0.91668750  0.37842131    -0.46600
H101        H  0.49302078  0.09231492  0.33506927     0.07000
C102        C  0.56700824  0.09303992  0.59146509    -0.06700
Cl103      Cl  0.52083262  0.00347139  0.48108085    -0.49700
C104        C  0.61154719  0.89888241  0.58526758     0.42800
H105        H  0.37802921  0.09634100  0.50310535     0.07000
N106        N  0.62566537  0.09077126  0.54149949    -0.46400
C107        C  0.91566707  0.60852161  0.56771848     0.42600
N108        N  0.97129362  0.56344549  0.55353275     0.01500
C109        C  0.10528773  0.55815109  0.36099622    -0.06300
H110        H  0.92757634  0.53070390  0.33523447     0.07000
C111        C  0.93883541  0.39112221  0.42550423    -0.06700
Co112      Co  0.02070732  0.59084920  0.46913871     0.74200
N113        N  0.97160403  0.55067659  0.39006930    -0.25900
Co114      Co  0.02209772  0.50128463  0.39239811     0.74100
C115        C  0.91726703  0.40506183  0.38293364     0.42700
N116        N  0.97274096  0.42787300  0.53176303     0.01200
N117        N  0.97332124  0.44979854  0.39665173     0.01300
N118        N  0.10383574  0.61633423  0.41142861    -0.46700
H119        H  0.92933223  0.65077292  0.50263703     0.07000
N120        N  0.97070833  0.58462000  0.41940946     0.01500
N121        N  0.07260827  0.45201431  0.39790592     0.01300
C122        C  0.13016438  0.40918167  0.38621989     0.42900
N123        N  0.97242254  0.46205927  0.56085116    -0.25300
C124        C  0.10433232  0.62407485  0.52574513    -0.06200
N125        N  0.93833830  0.57142339  0.58317984    -0.46400
N126        N  0.10694336  0.44531376  0.36954440    -0.46700
C127        C  0.12626390  0.60937504  0.56799773     0.42700
N128        N  0.07037694  0.58684050  0.41891191     0.01500
N129        N  0.07200794  0.46345503  0.56084239    -0.25300
N130        N  0.97142517  0.59298665  0.51953537    -0.25800
N131        N  0.07237143  0.42938671  0.53161974     0.01200
H132        H  0.11650406  0.48189473  0.61631643     0.07100
H133        H  0.11489980  0.36516793  0.44939812     0.07100
N134        N  0.07057981  0.55263346  0.38991091    -0.25900
N135        N  0.97322038  0.42072326  0.43105820    -0.25500
N136        N  0.07036992  0.56458981  0.55361148     0.01500
C137        C  0.91013479  0.59334607  0.37961727     0.42900
C138        C  0.93727741  0.45648260  0.58937886    -0.06800
N139        N  0.07203548  0.42229815  0.43175351    -0.25500
H140        H  0.93063734  0.36296399  0.44801104     0.07100
N141        N  0.93448375  0.61103303  0.41433455    -0.46700
H142        H  0.92861628  0.47909088  0.61705103     0.07100
C143        C  0.13124967  0.41783231  0.57329454     0.42800
C144        C  0.93732546  0.62272234  0.52529502    -0.06300
Co145      Co  0.02147556  0.51338820  0.55834353     0.73800
N146        N  0.93906920  0.39847632  0.53871181    -0.46400
C147        C  0.12749673  0.60036253  0.37546784     0.43000
N148        N  0.10356360  0.57218402  0.58305591    -0.46400
Co149      Co  0.02248517  0.42396387  0.48169675     0.73900
C150        C  0.10694078  0.39345610  0.42702966    -0.06800
C151        C  0.93525175  0.55381923  0.36277286    -0.06300
N152        N  0.07013055  0.59426981  0.51971354    -0.25800
N153        N  0.94030465  0.44170458  0.36700915    -0.46600
H154        H  0.11341901  0.53529075  0.33339931     0.07000
C155        C  0.10782223  0.45895990  0.58888002    -0.06700
Cl156      Cl  0.02165639  0.50738929  0.47542033    -0.49700
C157        C  0.91526295  0.41421931  0.57463388     0.42800
H158        H  0.11238443  0.65233059  0.50337008     0.07000
N159        N  0.10713068  0.40123322  0.53792177    -0.46400
C160        C  0.75221138  0.33052889  0.30672040     0.80400
N161        N  0.73625919  0.29074359  0.32451507    -0.77900
C162        C  0.70064831  0.26874913  0.30491474     0.82900
N163        N  0.68066592  0.28719468  0.26758932    -0.77800
C164        C  0.69632101  0.32666643  0.24905983     0.82900
N165        N  0.73235172  0.34822871  0.26877352    -0.79600
C166        C  0.74234217  0.67074037  0.31210157     0.80400
N167        N  0.72379495  0.65184764  0.27453849    -0.77900
C168        C  0.68522702  0.66867135  0.25561090     0.82900
N169        N  0.66486513  0.70563260  0.27506083    -0.77800
C170        C  0.68304866  0.72495737  0.31312901     0.82900
N171        N  0.72167809  0.70706431  0.33134291    -0.79600
C172        C  0.69341927  0.33446835  0.70537175     0.80400
N173        N  0.72998839  0.35455285  0.68524795    -0.77900
C174        C  0.74823984  0.33708897  0.64657565     0.82900
N175        N  0.72968117  0.29875810  0.62819860    -0.77800
C176        C  0.69292271  0.27847987  0.64789838     0.82900
N177        N  0.67492843  0.29666218  0.68619691    -0.79600
C178        C  0.34428985  0.74043491  0.29630514     0.80400
N179        N  0.36410433  0.72187424  0.25910284    -0.77900
C180        C  0.34575774  0.68477318  0.23872154     0.82900
N181        N  0.30736097  0.66585961  0.25630544    -0.77800
C182        C  0.28707773  0.68372243  0.29359925     0.82900
N183        N  0.30595704  0.72102151  0.31356390    -0.79600
C184        C  0.35336860  0.72746699  0.64907490     0.80400
N185        N  0.31640393  0.70828580  0.62912832    -0.77900
C186        C  0.29641304  0.67040472  0.64689893     0.82900
N187        N  0.31386974  0.65153176  0.68561596    -0.77800
C188        C  0.35139119  0.67026632  0.70578704     0.82900
N189        N  0.37070996  0.70824384  0.68729819    -0.79600
C190        C  0.34762079  0.32950529  0.70957866     0.80400
N191        N  0.36408653  0.29049993  0.69116975    -0.77900
C192        C  0.34292797  0.27097094  0.65507586     0.82900
N193        N  0.30482951  0.29080398  0.63755648    -0.77800
C194        C  0.28756371  0.32954627  0.65607975     0.82900
N195        N  0.30943797  0.34887394  0.69187821    -0.79600
C196        C  0.70820839  0.68595409  0.72115362     0.80400
N197        N  0.74353499  0.66657044  0.69851470    -0.77900
C198        C  0.76005493  0.68598280  0.65983981     0.82900
N199        N  0.74114182  0.72532978  0.64418104    -0.77800
C200        C  0.70605637  0.74530212  0.66659898     0.82900
N201        N  0.68945838  0.72509193  0.70479206    -0.79600
C202        C  0.34047136  0.26653611  0.30094970     0.80400
N203        N  0.30093461  0.28349374  0.31795849    -0.77900
C204        C  0.28158512  0.32123277  0.29924642     0.82900
N205        N  0.30196095  0.34186586  0.26335978    -0.77800
C206        C  0.34125696  0.32547043  0.24582264     0.82900
N207        N  0.36031026  0.28766839  0.26478311    -0.79600
C208        C  0.18241689  0.40430433  0.63932304    -0.12100
C209        C  0.17170706  0.39558091  0.59368730     0.04900
C210        C  0.19867151  0.36433076  0.56909782    -0.07400
C211        C  0.23552338  0.34265939  0.59037493    -0.08100
C212        C  0.24637282  0.35131569  0.63612959    -0.02700
C213        C  0.21872106  0.38200293  0.66103379     0.04200
N214        N  0.22518609  0.38905323  0.70884530     0.66700
H215        H  0.16121404  0.42714277  0.65906043     0.15600
H216        H  0.25642493  0.31967033  0.57044612     0.15300
N217        N  0.19023675  0.35543045  0.52204049     0.74400
O218        O  0.22475104  0.42907143  0.72473718    -0.39100
O219        O  0.22328348  0.35542955  0.73584317    -0.39000
O220        O  0.20544706  0.38259377  0.49221247    -0.39700
O221        O  0.17443743  0.31714571  0.51013681    -0.39800
C222        C  0.19607642  0.59498997  0.61252831    -0.12100
C223        C  0.16879855  0.62629898  0.58875721     0.04900
C224        C  0.18374540  0.67186905  0.58389183    -0.07400
C225        C  0.22592855  0.68476049  0.60217446    -0.08100
C226        C  0.25350636  0.65340064  0.62603789    -0.02700
C227        C  0.23836870  0.60773943  0.63055636     0.04200
N228        N  0.26684179  0.57293246  0.64956249     0.66700
H229        H  0.18543984  0.55954741  0.61533211     0.15600
H230        H  0.23633083  0.72022466  0.59906586     0.15300
N231        N  0.15556564  0.70607456  0.56309568     0.74400
O232        O  0.24973688  0.54366371  0.67626794    -0.39100
O233        O  0.30443528  0.56433614  0.63057309    -0.39000
O234        O  0.11609707  0.71353584  0.57853954    -0.39700
O235        O  0.17239159  0.73335361  0.53423290    -0.39800
C236        C  0.22577749  0.68197720  0.35208586    -0.12100
C237        C  0.24552793  0.66234128  0.31323145     0.04900
C238        C  0.22577214  0.62207308  0.29520559    -0.07400
C239        C  0.18746043  0.60289532  0.31598891    -0.08100
C240        C  0.16808450  0.62231540  0.35496694    -0.02700
C241        C  0.18783978  0.66225855  0.37319073     0.04200
N242        N  0.17104396  0.68245246  0.41402977     0.66700
H243        H  0.24029149  0.71250562  0.36707186     0.15600
H244        H  0.17295769  0.57243551  0.30102546     0.15300
N245        N  0.24412916  0.59956545  0.25621684     0.74400
O246        O  0.18511914  0.66780688  0.45194671    -0.39100
O247        O  0.14981234  0.71990754  0.41210967    -0.39000
O248        O  0.26417250  0.56169293  0.26104477    -0.39700
O249        O  0.23268548  0.61274688  0.21690288    -0.39800
C250        C  0.17305322  0.33951424  0.36668086    -0.12100
C251        C  0.16885596  0.38715214  0.36380975     0.04900
C252        C  0.20060152  0.41257671  0.33830670    -0.07400
C253        C  0.23631148  0.39006621  0.31668554    -0.08100
C254        C  0.24091978  0.34234496  0.31964481    -0.02700
C255        C  0.20812841  0.31665330  0.34400464     0.04200
N256        N  0.20829622  0.26760738  0.34386146     0.66700
H257        H  0.14766226  0.31965923  0.38499596     0.15600
H258        H  0.26148302  0.41044332  0.29866177     0.15300
N259        N  0.19826805  0.46135259  0.33572295     0.74400
O260        O  0.19868835  0.24573079  0.37970870    -0.39100
O261        O  0.21038987  0.24643907  0.30658102    -0.39000
O262        O  0.21166972  0.48511462  0.36890272    -0.39700
O263        O  0.18994394  0.48051525  0.29809686    -0.39800
C264        C  0.82646870  0.69315232  0.60792603    -0.12100
C265        C  0.79849276  0.66497613  0.63486510     0.04900
C266        C  0.80891902  0.61792257  0.63852997    -0.07400
C267        C  0.84799577  0.60077602  0.61726202    -0.08100
C268        C  0.87606899  0.62909888  0.59074556    -0.02700
C269        C  0.86498984  0.67581198  0.58600362     0.04200
N270        N  0.89361204  0.70673153  0.56120710     0.66700
H271        H  0.81938809  0.72939354  0.60501599     0.15600
H272        H  0.85549463  0.56458084  0.62011488     0.15300
N273        N  0.77925105  0.58666937  0.66175419     0.74400
O274        O  0.87760503  0.72868624  0.52777529    -0.39100
O275        O  0.93245083  0.71711456  0.57666689    -0.39000
O276        O  0.73813816  0.58281695  0.64943347    -0.39700
O277        O  0.79555301  0.55845823  0.68994772    -0.39800
C278        C  0.81903492  0.33083774  0.60031676    -0.12100
C279        C  0.78931528  0.35827383  0.62587326     0.04900
C280        C  0.80093890  0.40463675  0.63327233    -0.07400
C281        C  0.84262276  0.42156525  0.61716072    -0.08100
C282        C  0.87254476  0.39394807  0.59228457    -0.02700
C283        C  0.86024178  0.34818583  0.58348169     0.04200
N284        N  0.88988187  0.31833868  0.55899451     0.66700
H285        H  0.81100214  0.29514076  0.59443987     0.15600
H286        H  0.85073680  0.45726616  0.62278463     0.15300
N287        N  0.77023770  0.43557254  0.65529957     0.74400
O288        O  0.92265349  0.29914450  0.57932789    -0.39100
O289        O  0.87954614  0.30615853  0.51915937    -0.39000
O290        O  0.78533512  0.46365891  0.68409489    -0.39700
O291        O  0.72981830  0.43977302  0.64098774    -0.39800
C292        C  0.84288186  0.36591419  0.39143508    -0.12100
C293        C  0.87516177  0.38650261  0.36276385     0.04900
C294        C  0.86578880  0.39061491  0.31585652    -0.07400
C295        C  0.82440250  0.37422826  0.29857506    -0.08100
C296        C  0.79243506  0.35283953  0.32716475    -0.02700
C297        C  0.80151782  0.34953717  0.37427712     0.04200
N298        N  0.76837349  0.33149574  0.40538538     0.66700
H299        H  0.84907302  0.36379726  0.42774044     0.15600
H300        H  0.81830707  0.37614633  0.26222958     0.15300
N301        N  0.89924837  0.40812617  0.28491694     0.74400
O302        O  0.77991058  0.30183121  0.43448339    -0.39100
O303        O  0.72938493  0.34960804  0.40788691    -0.39000
O304        O  0.93399505  0.38446219  0.27573036    -0.39700
O305        O  0.89077570  0.44342384  0.26162422    -0.39800
C306        C  0.79480742  0.60559804  0.32226583    -0.12100
C307        C  0.78473426  0.65149963  0.33119714     0.04900
C308        C  0.81518597  0.67743159  0.35798952    -0.07400
C309        C  0.85502147  0.65706053  0.37458129    -0.08100
C310        C  0.86575664  0.61148951  0.36429277    -0.02700
C311        C  0.83453496  0.58521521  0.33866782     0.04200
N312        N  0.84133631  0.53754351  0.33025770     0.66700
H313        H  0.77097636  0.58472767  0.30315192     0.15600
H314        H  0.87866419  0.67774886  0.39415784     0.15300
N315        N  0.80764874  0.72496150  0.36653748     0.74400
O316        O  0.84271186  0.50977846  0.36321654    -0.39100
O317        O  0.83731096  0.52235984  0.29031934    -0.39000
O318        O  0.80456894  0.73913465  0.40690906    -0.39700
O319        O  0.81000942  0.75343076  0.33423578    -0.39800
C320        C  0.62424832  0.23167184  0.63183790    -0.12100
C321        C  0.67165270  0.23747559  0.62782131     0.04900
C322        C  0.69742473  0.20422448  0.60467633    -0.07400
C323        C  0.67560140  0.16581676  0.58660209    -0.08100
C324        C  0.62834590  0.15953517  0.59146639    -0.02700
C325        C  0.60228621  0.19355871  0.61330762     0.04200
N326        N  0.55348183  0.19133666  0.61484227     0.66700
H327        H  0.60381860  0.25765303  0.64836245     0.15600
H328        H  0.69610666  0.13988791  0.57010078     0.15300
N329        N  0.74602600  0.20743882  0.60173381     0.74400
O330        O  0.53297435  0.19477249  0.65241410    -0.39100
O331        O  0.53081841  0.19269885  0.57832027    -0.39000
O332        O  0.77021181  0.19782745  0.63599583    -0.39700
O333        O  0.76483377  0.21374707  0.56361795    -0.39800
C334        C  0.41045089  0.16215253  0.63456415    -0.12100
C335        C  0.40186777  0.15458208  0.58822721     0.04900
C336        C  0.37433823  0.18592114  0.56408647    -0.07400
C337        C  0.35428179  0.22254787  0.58697106    -0.08100
C338        C  0.36240317  0.22984823  0.63341990    -0.02700
C339        C  0.39100443  0.19918584  0.65731658     0.04200
N340        N  0.39929006  0.20401003  0.70501352     0.66700
H341        H  0.43149367  0.13846277  0.65373745     0.15600
H342        H  0.33376863  0.24659545  0.56765926     0.15300
N343        N  0.36869453  0.18298994  0.51592645     0.74400
O344        O  0.36802966  0.19482883  0.73312707    -0.39100
O345        O  0.43913528  0.21215103  0.71919814    -0.39000
O346        O  0.32909211  0.18225268  0.49907457    -0.39700
O347        O  0.40273573  0.18870042  0.49021983    -0.39800
C348        C  0.39113924  0.19915910  0.29317023    -0.12100
C349        C  0.36164976  0.22494265  0.32061200     0.04900
C350        C  0.35180976  0.20922913  0.36511615    -0.07400
C351        C  0.37182289  0.16879230  0.38088101    -0.08100
C352        C  0.40250107  0.14398302  0.35401681    -0.02700
C353        C  0.41092768  0.15854264  0.30890968     0.04200
N354        N  0.43654068  0.13119760  0.27762275     0.66700
H355        H  0.39755251  0.20966758  0.25827501     0.15600
H356        H  0.36445041  0.15750804  0.41534566     0.15300
N357        N  0.32327900  0.23459619  0.39547135     0.74400
O358        O  0.42614152  0.08968485  0.27213641    -0.39100
O359        O  0.46333444  0.15012657  0.24967120    -0.39000
O360        O  0.29102059  0.21476095  0.41606396    -0.39700
O361        O  0.33436437  0.27466937  0.40685804    -0.39800
C362        C  0.68764986  0.15967158  0.37425034    -0.12100
C363        C  0.64129519  0.14993736  0.36731611     0.04900
C364        C  0.61535696  0.17825365  0.33837188    -0.07400
C365        C  0.63569416  0.21618780  0.31790857    -0.08100
C366        C  0.68198881  0.22634232  0.32500929    -0.02700
C367        C  0.70857678  0.19685036  0.35252529     0.04200
N368        N  0.75705056  0.20241433  0.35655394     0.66700
H369        H  0.70832354  0.13709672  0.39510984     0.15600
H370        H  0.61462496  0.23841982  0.29706859     0.15300
N371        N  0.56800917  0.16974162  0.33029829     0.74400
O372        O  0.77603057  0.19885407  0.39496737    -0.39100
O373        O  0.78147081  0.20338497  0.32119264    -0.39000
O374        O  0.53850153  0.18520512  0.35740540    -0.39700
O375        O  0.55551296  0.15291432  0.29284942    -0.39800
C376        C  0.36897050  0.77672756  0.58219802    -0.12100
C377        C  0.37381721  0.76918106  0.62912339     0.04900
C378        C  0.39827199  0.80130295  0.65543751    -0.07400
C379        C  0.41646540  0.84031068  0.63454187    -0.08100
C380        C  0.41031978  0.84845923  0.58789118    -0.02700
C381        C  0.38756744  0.81541939  0.56120401     0.04200
N382        N  0.38510073  0.81914073  0.51264004     0.66700
H383        H  0.35169803  0.75163660  0.56125053     0.15600
H384        H  0.43387262  0.86537332  0.65541911     0.15300
N385        N  0.40259878  0.79644013  0.70369651     0.74400
O386        O  0.42137393  0.82093985  0.48954650    -0.43200
O387        O  0.34741056  0.81358485  0.49255136    -0.39000
O388        O  0.44170761  0.79420435  0.72158744    -0.39700
O389        O  0.36800842  0.80154108  0.72872119    -0.39800
C390        C  0.63765220  0.79479888  0.65909809    -0.12100
C391        C  0.68338092  0.78640851  0.64760756     0.04900
C392        C  0.70511143  0.81552120  0.61581341    -0.07400
C393        C  0.68061188  0.85122551  0.59561251    -0.08100
C394        C  0.63476307  0.85937858  0.60680300    -0.02700
C395        C  0.61306257  0.83035255  0.63874197     0.04200
N396        N  0.56554510  0.83439980  0.64903700     0.66700
H397        H  0.61996290  0.77229298  0.68261756     0.15600
H398        H  0.69809791  0.87338356  0.57161881     0.15300
N399        N  0.75236376  0.81038842  0.60469640     0.74400
O400        O  0.53624851  0.82397457  0.61931445    -0.39100
O401        O  0.55299460  0.84040967  0.68963904    -0.39000
O402        O  0.76412192  0.80307223  0.56408135    -0.39700
O403        O  0.78246966  0.81902335  0.63418384    -0.39800
C404        C  0.61850876  0.83617238  0.33255667    -0.12100
C405        C  0.63285377  0.84754933  0.37676941     0.04900
C406        C  0.66127892  0.81675594  0.40060815    -0.07400
C407        C  0.67611335  0.77686698  0.37933706    -0.08100
C408        C  0.66287763  0.76604558  0.33463829    -0.02700
C409        C  0.63298340  0.79592174  0.31147310     0.04200
N410        N  0.61840686  0.78708039  0.26596169     0.66700
H411        H  0.59644531  0.85912777  0.31363586     0.15600
H412        H  0.69816388  0.75401610  0.39839708     0.15300
N413        N  0.67475705  0.82451370  0.44667466     0.74400
O414        O  0.58028624  0.76822214  0.25903307    -0.39100
O415        O  0.64009470  0.80426199  0.23298559    -0.39000
O416        O  0.64686513  0.81665751  0.47846850    -0.39700
O417        O  0.71632228  0.83102259  0.45596803    -0.39800
C418        C  0.36518006  0.84498817  0.36973709    -0.12100
C419        C  0.41194234  0.85226903  0.36243661     0.04900
C420        C  0.43626403  0.82199832  0.33412642    -0.07400
C421        C  0.41312439  0.78659612  0.31240113    -0.08100
C422        C  0.36615990  0.77976624  0.31888592    -0.02700
C423        C  0.34200610  0.80944299  0.34798399     0.04200
N424        N  0.29371396  0.80552411  0.35411342     0.66700
H425        H  0.34596366  0.86813488  0.39111622     0.15600
H426        H  0.43260273  0.76334571  0.29138982     0.15300
N427        N  0.48467794  0.82512475  0.32857605     0.74400
O428        O  0.27749063  0.79984785  0.39349411    -0.39100
O429        O  0.26718533  0.81418237  0.32135094    -0.39000
O430        O  0.51061300  0.81753856  0.36206230    -0.39700
O431        O  0.50153255  0.82861656  0.28920890    -0.39800
C432        C  0.62334195  0.34063560  0.14274419    -0.12100
C433        C  0.63104580  0.38663849  0.13183609     0.04900
C434        C  0.65945367  0.41310152  0.16018259    -0.07400
C435        C  0.68085493  0.39276138  0.19768967    -0.08100
C436        C  0.67376592  0.34642048  0.20832998    -0.02700
C437        C  0.64427171  0.32033738  0.18037951     0.04200
N438        N  0.63631708  0.27277572  0.18849802     0.66700
H439        H  0.60192461  0.31963194  0.12117291     0.15600
H440        H  0.70224829  0.41383067  0.21924225     0.15300
N441        N  0.66530024  0.46105677  0.15266344     0.74400
O442        O  0.59859107  0.25982055  0.20477973    -0.39100
O443        O  0.66347736  0.24359897  0.17238588    -0.39000
O444        O  0.63298275  0.48803142  0.16162658    -0.39700
O445        O  0.70465354  0.47693360  0.14514405    -0.39800
C446        C  0.67330148  0.59493682  0.14965174    -0.12100
C447        C  0.63402457  0.61289952  0.12943260     0.04900
C448        C  0.61054162  0.64848671  0.15191311    -0.07400
C449        C  0.62736824  0.66560431  0.19307408    -0.08100
C450        C  0.66717143  0.64793727  0.21305006    -0.02700
C451        C  0.68966777  0.61120632  0.19100723     0.04200
N452        N  0.72888104  0.58931464  0.21007108     0.66700
H453        H  0.69218546  0.56739132  0.13318740     0.15600
H454        H  0.60887019  0.69339133  0.20943439     0.15300
N455        N  0.56924853  0.66722764  0.13400965     0.74400
O456        O  0.72404773  0.55224417  0.23166352    -0.39100
O457        O  0.76823857  0.60161874  0.19757207    -0.39000
O458        O  0.53195377  0.65893447  0.15385526    -0.39700
O459        O  0.57115714  0.69891876  0.10481613    -0.39800
C460        C  0.42162211  0.66549121  0.13589771    -0.12100
C461        C  0.41016050  0.62047250  0.12446288     0.04900
C462        C  0.37771989  0.59673921  0.15091949    -0.07400
C463        C  0.35679020  0.61864966  0.18736233    -0.08100
C464        C  0.36805857  0.66382548  0.19886895    -0.02700
C465        C  0.40125087  0.68724851  0.17274103     0.04200
N466        N  0.41410558  0.73337103  0.18233241     0.66700
H467        H  0.44612023  0.68463780  0.11561140     0.15600
H468        H  0.33236077  0.59935532  0.20766646     0.15300
N469        N  0.36739676  0.54972187  0.14279458     0.74400
O470        O  0.45291658  0.74164419  0.19906828    -0.39100
O471        O  0.39010530  0.76588246  0.16731293    -0.39000
O472        O  0.39432151  0.51925388  0.15710053    -0.39700
O473        O  0.32840775  0.53850851  0.12832982    -0.39800
C474        C  0.39948342  0.32637935  0.18430422    -0.12100
C475        C  0.36268792  0.34795241  0.20594420     0.04900
C476        C  0.34665295  0.39003673  0.18819196    -0.07400
C477        C  0.36625281  0.40828095  0.14897159    -0.08100
C478        C  0.40270914  0.38659621  0.12716175    -0.02700
C479        C  0.41969038  0.34527629  0.14553992     0.04200
N480        N  0.45724333  0.32179579  0.12537054     0.66700
H481        H  0.41273397  0.29415289  0.19723297     0.15600
H482        H  0.35264375  0.44031351  0.13591801     0.15300
N483        N  0.31148051  0.41563103  0.21005314     0.74400
O484        O  0.49628524  0.32479652  0.14327534    -0.39100
O485        O  0.44971565  0.29122712  0.09613646    -0.39000
O486        O  0.32215386  0.44548122  0.23906705    -0.39700
O487        O  0.27140312  0.41472898  0.19431868    -0.39800
C488        C  0.64004885  0.66709751  0.76741181    -0.12100
C489        C  0.68727108  0.66257227  0.76066054     0.04900
C490        C  0.71255409  0.63362303  0.78989252    -0.07400
C491        C  0.68995286  0.60918770  0.82426304    -0.08100
C492        C  0.64280774  0.61402502  0.83101003    -0.02700
C493        C  0.61771107  0.64302799  0.80197159     0.04200
N494        N  0.56922042  0.64687575  0.80582065     0.66700
H495        H  0.61989458  0.68835465  0.74474249     0.15600
H496        H  0.70982816  0.58789043  0.84710510     0.15300
N497        N  0.76129185  0.63068363  0.78692565     0.74400
O498        O  0.55162510  0.68442818  0.81729766    -0.39100
O499        O  0.54396067  0.61499965  0.79158658    -0.39000
O500        O  0.78518746  0.66647340  0.79014984    -0.39700
O501        O  0.78061350  0.59216423  0.78817053    -0.39800
C502        C  0.67471746  0.39966619  0.81593064    -0.12100
C503        C  0.62947961  0.38766981  0.82616082     0.04900
C504        C  0.60513439  0.35962762  0.79553864    -0.07400
C505        C  0.62711712  0.34258217  0.75701750    -0.08100
C506        C  0.67282247  0.35350910  0.74729051    -0.02700
C507        C  0.69682803  0.38272061  0.77729779     0.04200
N508        N  0.74408073  0.39380076  0.77074828     0.66700
H509        H  0.69389810  0.42102698  0.83920201     0.15600
H510        H  0.60760002  0.32143457  0.73382819     0.15300
N511        N  0.55770289  0.34955338  0.80160460     0.74400
O512        O  0.75759415  0.43436890  0.77651735    -0.39100
O513        O  0.77323295  0.36217400  0.76838100    -0.39000
O514        O  0.52869190  0.38132034  0.79899868    -0.39700
O515        O  0.54427038  0.30853463  0.80164607    -0.39800
C516        C  0.38647123  0.41508310  0.79761713    -0.12100
C517        C  0.40390315  0.38613794  0.83152531     0.04900
C518        C  0.40516115  0.33858869  0.82402222    -0.07400
C519        C  0.38833124  0.32079944  0.78320979    -0.08100
C520        C  0.36996342  0.34971583  0.74969506    -0.02700
C521        C  0.37038056  0.39737317  0.75653614     0.04200
N522        N  0.35648458  0.42821961  0.72129333     0.66700
H523        H  0.38676303  0.45182952  0.80233531     0.15600
H524        H  0.38782612  0.28404751  0.77858403     0.15300
N525        N  0.42053172  0.30777134  0.85864690     0.74400
O526        O  0.32549508  0.45706470  0.72871785    -0.39100
O527        O  0.37708078  0.42854470  0.68359480    -0.39000
O528        O  0.39501942  0.29885209  0.89210564    -0.39700
O529        O  0.45632778  0.28467175  0.85261181    -0.39800
C530        C  0.39236084  0.68231767  0.77885727    -0.12100
C531        C  0.36974460  0.65212375  0.74928734     0.04900
C532        C  0.36445145  0.60604831  0.76266460    -0.07400
C533        C  0.38153166  0.59118596  0.80453740    -0.08100
C534        C  0.40490863  0.62108814  0.83331859    -0.02700
C535        C  0.40946127  0.66746405  0.82083342     0.04200
N536        N  0.42904291  0.70031558  0.85119034     0.66700
H537        H  0.39563761  0.71815963  0.77003434     0.15600
H538        H  0.37849465  0.55529835  0.81350731     0.15300
N539        N  0.34498158  0.57295210  0.73298580     0.74400
O540        O  0.45824697  0.72860996  0.83674030    -0.39100
O541        O  0.41262065  0.70522470  0.89055611    -0.39000
O542        O  0.36680036  0.56140820  0.69789415    -0.39700
O543        O  0.31334591  0.54755303  0.74756718    -0.39800
loop_ 
_geom_bond_atom_site_label_1 
_geom_bond_atom_site_label_2 
_geom_bond_distance 
_geom_bond_site_symmetry_2 
_ccdc_geom_bond_type 
C1           N19   1.350       .  A
C1           C38   1.457       .  S
C1          C534   1.470       .  S
N2           N19   1.322       .  A
N2           N24   1.319       .  A
N2          Co39   2.079       .  S
C3           N28   1.338       .  A
C3           C41   1.465       .  S
C3           H48   1.081       .  S
H4           C45   1.081       .  S
C5           N29   1.338       .  A
C5            C9   1.461       .  S
C5           H34   1.080       .  S
Co6          N24   2.067       .  S
Co6          N14   2.080       .  S
Co6          N46   2.067   1_556  S
Co6          N22   2.072   1_556  S
Co6         Cl50   2.446       .  S
N7           C45   1.339       .  A
N7           N14   1.319       .  A
N7           Co8   2.076       .  S
Co8          N11   2.083       .  S
Co8          N28   2.079   1_556  S
Co8          N15   2.082   1_556  S
Co8         Cl50   2.447       .  S
C9           N47   1.351       .  A
C9          C503   1.480       .  S
N10          N17   1.320       .  A
N10          N40   1.323       .  A
N10         Co43   2.081       .  S
N11          N29   1.318       .  A
N11          N47   1.323       .  A
N12          C41   1.347       .  A
N12          N22   1.323       .  A
H13          C38   1.081       .  S
N14          N35   1.323       .  A
N15          N33   1.319       .  A
N15          N20   1.324       .  A
C16          N20   1.349       .  A
C16          C44   1.457       .  S
C16         C433   1.475       .  S
N17          C32   1.338       .  A
N17         Co39   2.076       .  S
C18          N46   1.335       .  A
C18          C21   1.456       .  S
C18          H52   1.080       .  S
C21          N42   1.349       .  A
C21         C461   1.471       .  S
N22          N28   1.317       .  A
N23          C49   1.336       .  A
N23          N25   1.317       .  A
N23         Co39   2.076   1_554  S
N24          C38   1.337       .  A
N25          N53   1.322       .  A
N25         Co43   2.069   1_554  S
H26          C49   1.081       .  S
H27          C44   1.080       .  S
N29         Co43   2.071       .  S
N30          N42   1.322       .  A
N30          N46   1.318       .  A
N30         Co39   2.074   1_554  S
C31          N35   1.350       .  A
C31          C45   1.458       .  S
C31         C492   1.474       .  S
C32          C51   1.457       .  S
C32          H36   1.081       .  S
N33          C44   1.337       .  A
N33         Co43   2.075   1_554  S
C37          N53   1.348       .  A
C37          C49   1.462       .  S
C37         C478   1.478       .  S
Co39        Cl50   2.442       .  S
N40          C51   1.349       .  A
C41         C447   1.482       .  S
Co43        Cl50   2.452       .  S
C51         C517   1.471       .  S
C54          N72   1.350       .  A
C54          C91   1.458       .  S
C54         C380   1.476       .  S
N55          N72   1.324       .  A
N55          N77   1.318       .  A
N55         Co92   2.081   1_565  S
C56          N81   1.339       .  A
C56          C94   1.463       .  S
C56         H101   1.081       .  S
H57          C98   1.080       .  S
C58          N82   1.339       .  A
C58          C62   1.466       .  S
C58          H87   1.079       .  S
Co59         N77   2.072   1_545  S
Co59         N67   2.079   1_545  S
Co59         N99   2.079       .  S
Co59         N75   2.078       .  S
Co59       Cl103   2.449       .  S
N60          C98   1.334       .  A
N60          N67   1.317       .  A
N60         Co61   2.064   1_565  S
Co61         N64   2.077   1_545  S
Co61         N81   2.079       .  S
Co61         N68   2.072       .  S
Co61       Cl103   2.442       .  S
C62         N100   1.349       .  A
C62         C405   1.482       .  S
N63          N70   1.317       .  A
N63          N93   1.323       .  A
N63         Co96   2.080   1_565  S
N64          N82   1.317       .  A
N64         N100   1.321       .  A
N65          C94   1.349       .  A
N65          N75   1.322       .  A
H66          C91   1.080       .  S
N67          N88   1.323       .  A
N68          N86   1.318       .  A
N68          N73   1.321       .  A
C69          N73   1.348       .  A
C69          C97   1.457       .  S
C69         C363   1.470       .  S
N70          C85   1.338       .  A
N70         Co92   2.073   1_565  S
C71          N99   1.340       .  A
C71          C74   1.464       .  S
C71         H105   1.080       .  S
C74          N95   1.348       .  A
C74         C335   1.479       .  S
N75          N81   1.319       .  A
N76         C102   1.339       .  A
N76          N78   1.319       .  A
N76         Co92   2.079       .  S
N77          C91   1.336       .  A
N78         N106   1.323       .  A
N78         Co96   2.080       .  S
H79         C102   1.081       .  S
H80          C97   1.081       .  S
N82         Co96   2.077   1_565  S
N83          N95   1.322       .  A
N83          N99   1.318       .  A
N83         Co92   2.077       .  S
C84          N88   1.350       .  A
C84          C98   1.457       .  S
C84         C419   1.473       .  S
C85         C104   1.462       .  S
C85          H89   1.080       .  S
N86          C97   1.338       .  A
N86         Co96   2.073       .  S
C90         N106   1.349       .  A
C90         C102   1.461       .  S
C90         C324   1.476       .  S
Co92       Cl103   2.446       .  S
N93         C104   1.351       .  A
C94         C352   1.479       .  S
Co96       Cl103   2.449       .  S
C104        C394   1.481       .  S
C107        N125   1.350       .  A
C107        C144   1.458       .  S
C107        C268   1.474       .  S
N108        N125   1.323       .  A
N108        N130   1.318       .  A
N108       Co145   2.081   1_655  S
C109        N134   1.335       .  A
C109        C147   1.460       .  S
C109        H154   1.080       .  S
H110        C151   1.080       .  S
C111        N135   1.338       .  A
C111        C115   1.458       .  S
C111        H140   1.081       .  S
Co112       N130   2.071   1_455  S
Co112       N120   2.077   1_455  S
Co112       N152   2.077       .  S
Co112       N128   2.078       .  S
Co112      Cl156   2.448       .  S
N113        C151   1.336       .  A
N113        N120   1.318       .  A
N113       Co114   2.070   1_655  S
Co114       N117   2.078   1_455  S
Co114       N134   2.067       .  S
Co114       N121   2.073       .  S
Co114      Cl156   2.448       .  S
C115        N153   1.348       .  A
C115        C293   1.472       .  S
N116        N123   1.319       .  A
N116        N146   1.323       .  A
N116       Co149   2.076   1_655  S
N117        N135   1.319       .  A
N117        N153   1.323       .  A
N118        C147   1.350       .  A
N118        N128   1.323       .  A
H119        C144   1.081       .  S
N120        N141   1.322       .  A
N121        N139   1.319       .  A
N121        N126   1.322       .  A
C122        N126   1.348       .  A
C122        C150   1.452       .  S
C122        C251   1.463       .  S
N123        C138   1.338       .  A
N123       Co145   2.078   1_655  S
C124        N152   1.339       .  A
C124        C127   1.461       .  S
C124        H158   1.080       .  S
C127        N148   1.348       .  A
C127        C223   1.473       .  S
N128        N134   1.317       .  A
N129        C155   1.340       .  A
N129        N131   1.318       .  A
N129       Co145   2.083       .  S
N130        C144   1.337       .  A
N131        N159   1.323       .  A
N131       Co149   2.077       .  S
H132        C155   1.081       .  S
H133        C150   1.080       .  S
N135       Co149   2.075   1_655  S
N136        N148   1.321       .  A
N136        N152   1.319       .  A
N136       Co145   2.075       .  S
C137        N141   1.349       .  A
C137        C151   1.460       .  S
C137        C310   1.475       .  S
C138        C157   1.461       .  S
C138        H142   1.081       .  S
N139        C150   1.335       .  A
N139       Co149   2.066       .  S
C143        N159   1.348       .  A
C143        C155   1.462       .  S
C143        C209   1.479       .  S
Co145      Cl156   2.445       .  S
N146        C157   1.349       .  A
C147        C240   1.478       .  S
Co149      Cl156   2.447       .  S
C157        C282   1.478       .  S
C160        N161   1.357       .  A
C160        N165   1.359       .  A
C160        C296   1.475       .  S
N161        C162   1.354       .  A
C162        N163   1.354       .  A
C162        C366   1.476       .  S
N163        C164   1.354       .  A
C164        N165   1.359       .  A
C164        C436   1.483       .  S
C166        N167   1.350       .  A
C166        N171   1.350       .  A
C166        C307   1.474       .  S
N167        C168   1.352       .  A
C168        N169   1.364       .  A
C168        C450   1.489       .  S
N169        C170   1.363       .  A
C170        N171   1.357       .  A
C170        C408   1.484       .  S
C172        N173   1.356       .  A
C172        N177   1.355       .  A
C172        C506   1.484       .  S
N173        C174   1.359       .  A
C174        N175   1.359       .  A
C174        C279   1.483       .  S
N175        C176   1.358       .  A
C176        N177   1.355       .  A
C176        C321   1.476       .  S
C178        N179   1.355       .  A
C178        N183   1.356       .  A
C178        C422   1.476       .  S
N179        C180   1.352       .  A
C180        N181   1.355       .  A
C180        C464   1.478       .  S
N181        C182   1.355       .  A
C182        N183   1.358       .  A
C182        C237   1.484       .  S
C184        N185   1.353       .  A
C184        N189   1.353       .  A
C184        C377   1.478       .  S
N185        C186   1.356       .  A
C186        N187   1.363       .  A
C186        C226   1.484       .  S
N187        C188   1.364       .  A
C188        N189   1.358       .  A
C188        C531   1.483       .  S
C190        N191   1.355       .  A
C190        N195   1.357       .  A
C190        C520   1.474       .  S
N191        C192   1.356       .  A
C192        N193   1.359       .  A
C192        C338   1.479       .  S
N193        C194   1.358       .  A
C194        N195   1.357       .  A
C194        C212   1.485       .  S
C196        N197   1.357       .  A
C196        N201   1.357       .  A
C196        C489   1.479       .  S
N197        C198   1.358       .  A
C198        N199   1.357       .  A
C198        C265   1.481       .  S
N199        C200   1.356       .  A
C200        N201   1.357       .  A
C200        C391   1.482       .  S
C202        N203   1.357       .  A
C202        N207   1.358       .  A
C202        C349   1.482       .  S
N203        C204   1.356       .  A
C204        N205   1.352       .  A
C204        C254   1.472       .  S
N205        C206   1.351       .  A
C206        N207   1.357       .  A
C206        C475   1.481       .  S
C208        H215   1.084       .  S
C208        C209   1.402       .  A
C208        C213   1.401       .  A
C209        C210   1.411       .  A
C210        C211   1.399       .  A
C210        N217   1.430       .  S
C211        H216   1.084       .  S
C211        C212   1.406       .  A
C212        C213   1.417       .  A
C213        N214   1.434       .  S
N214        O218   1.262       .  A
N214        O219   1.262       .  A
N217        O221   1.262       .  A
N217        O220   1.262       .  A
C222        H229   1.085       .  S
C222        C223   1.401       .  A
C222        C227   1.398       .  A
C223        C224   1.409       .  A
C224        C225   1.399       .  A
C224        N231   1.433       .  S
C225        H230   1.084       .  S
C225        C226   1.408       .  A
C226        C227   1.413       .  A
C227        N228   1.429       .  S
N228        O232   1.263       .  A
N228        O233   1.261       .  A
N231        O235   1.262       .  A
N231        O234   1.262       .  A
C236        H243   1.084       .  S
C236        C237   1.406       .  A
C236        C241   1.396       .  A
C237        C238   1.416       .  A
C238        C239   1.394       .  A
C238        N245   1.430       .  S
C239        H244   1.082       .  S
C239        C240   1.402       .  A
C240        C241   1.411       .  A
C241        N242   1.428       .  S
N242        O246   1.262       .  A
N242        O247   1.262       .  A
N245        O249   1.262       .  A
N245        O248   1.262       .  A
C250        H257   1.085       .  S
C250        C251   1.401       .  A
C250        C255   1.398       .  A
C251        C252   1.405       .  A
C252        C253   1.392       .  A
C252        N259   1.430       .  S
C253        H258   1.085       .  S
C253        C254   1.405       .  A
C254        C255   1.412       .  A
C255        N256   1.435       .  S
N256        O260   1.262       .  A
N256        O261   1.263       .  A
N259        O263   1.262       .  A
N259        O262   1.262       .  A
C264        H271   1.084       .  S
C264        C265   1.404       .  A
C264        C269   1.397       .  A
C265        C266   1.414       .  A
C266        C267   1.400       .  A
C266        N273   1.432       .  S
C267        H272   1.085       .  S
C267        C268   1.401       .  A
C268        C269   1.411       .  A
C269        N270   1.430       .  S
N270        O274   1.262       .  A
N270        O275   1.262       .  A
N273        O277   1.261       .  A
N273        O276   1.263       .  A
C278        H285   1.085       .  S
C278        C279   1.405       .  A
C278        C283   1.399       .  A
C279        C280   1.416       .  A
C280        C281   1.399       .  A
C280        N287   1.434       .  S
C281        H286   1.084       .  S
C281        C282   1.401       .  A
C282        C283   1.411       .  A
C283        N284   1.429       .  S
N284        O288   1.262       .  A
N284        O289   1.262       .  A
N287        O291   1.262       .  A
N287        O290   1.261       .  A
C292        H299   1.084       .  S
C292        C293   1.401       .  A
C292        C297   1.397       .  A
C293        C294   1.410       .  A
C294        C295   1.399       .  A
C294        N301   1.431       .  S
C295        H300   1.084       .  S
C295        C296   1.404       .  A
C296        C297   1.413       .  A
C297        N298   1.433       .  S
N298        O302   1.262       .  A
N298        O303   1.262       .  A
N301        O305   1.261       .  A
N301        O304   1.262       .  A
C306        H313   1.085       .  S
C306        C307   1.401       .  A
C306        C311   1.393       .  A
C307        C308   1.412       .  A
C308        C309   1.398       .  A
C308        N315   1.431       .  S
C309        H314   1.085       .  S
C309        C310   1.404       .  A
C310        C311   1.413       .  A
C311        N312   1.432       .  S
N312        O316   1.262       .  A
N312        O317   1.262       .  A
N315        O319   1.262       .  A
N315        O318   1.262       .  A
C320        H327   1.085       .  S
C320        C321   1.404       .  A
C320        C325   1.399       .  A
C321        C322   1.410       .  A
C322        C323   1.398       .  A
C322        N329   1.430       .  S
C323        H328   1.085       .  S
C323        C324   1.404       .  A
C324        C325   1.412       .  A
C325        N326   1.432       .  S
N326        O330   1.262       .  A
N326        O331   1.262       .  A
N329        O333   1.262       .  A
N329        O332   1.262       .  A
C334        H341   1.084       .  S
C334        C335   1.403       .  A
C334        C339   1.398       .  A
C335        C336   1.411       .  A
C336        C337   1.398       .  A
C336        N343   1.428       .  S
C337        H342   1.084       .  S
C337        C338   1.403       .  A
C338        C339   1.413       .  A
C339        N340   1.430       .  S
N340        O344   1.262       .  A
N340        O345   1.262       .  A
N343        O347   1.262       .  A
N343        O346   1.261       .  A
C348        H355   1.086       .  S
C348        C349   1.405       .  A
C348        C353   1.400       .  A
C349        C350   1.415       .  A
C350        C351   1.398       .  A
C350        N357   1.433       .  S
C351        H356   1.086       .  S
C351        C352   1.402       .  A
C352        C353   1.413       .  A
C353        N354   1.435       .  S
N354        O358   1.263       .  A
N354        O359   1.263       .  A
N357        O361   1.262       .  A
N357        O360   1.262       .  A
C362        H369   1.085       .  S
C362        C363   1.402       .  A
C362        C367   1.400       .  A
C363        C364   1.408       .  A
C364        C365   1.393       .  A
C364        N371   1.429       .  S
C365        H370   1.085       .  S
C365        C366   1.404       .  A
C366        C367   1.414       .  A
C367        N368   1.434       .  S
N368        O372   1.262       .  A
N368        O373   1.263       .  A
N371        O375   1.262       .  A
N371        O374   1.262       .  A
C376        H383   1.084       .  S
C376        C377   1.403       .  A
C376        C381   1.397       .  A
C377        C378   1.413       .  A
C378        C379   1.399       .  A
C378        N385   1.431       .  S
C379        H384   1.085       .  S
C379        C380   1.402       .  A
C380        C381   1.413       .  A
C381        N382   1.433       .  S
N382        O386   1.262       .  A
N382        O387   1.262       .  A
N385        O389   1.262       .  A
N385        O388   1.262       .  A
C390        H397   1.084       .  S
C390        C391   1.404       .  A
C390        C395   1.398       .  A
C391        C392   1.413       .  A
C392        C393   1.398       .  A
C392        N399   1.431       .  S
C393        H398   1.084       .  S
C393        C394   1.404       .  A
C394        C395   1.414       .  A
C395        N396   1.430       .  S
N396        O400   1.262       .  A
N396        O401   1.262       .  A
N399        O403   1.262       .  A
N399        O402   1.262       .  A
C404        H411   1.084       .  S
C404        C405   1.407       .  A
C404        C409   1.399       .  A
C405        C406   1.412       .  A
C406        C407   1.396       .  A
C406        N413   1.429       .  S
C407        H412   1.084       .  S
C407        C408   1.407       .  A
C408        C409   1.411       .  A
C409        N410   1.429       .  S
N410        O414   1.262       .  A
N410        O415   1.262       .  A
N413        O417   1.262       .  A
N413        O416   1.262       .  A
C418        H425   1.084       .  S
C418        C419   1.403       .  A
C418        C423   1.398       .  A
C419        C420   1.412       .  A
C420        C421   1.394       .  A
C420        N427   1.431       .  S
C421        H426   1.084       .  S
C421        C422   1.403       .  A
C422        C423   1.413       .  A
C423        N424   1.431       .  S
N424        O428   1.262       .  A
N424        O429   1.262       .  A
N427        O431   1.262       .  A
N427        O430   1.262       .  A
C432        H439   1.084       .  S
C432        C433   1.400       .  A
C432        C437   1.395       .  A
C433        C434   1.410       .  A
C434        C435   1.399       .  A
C434        N441   1.429       .  S
C435        H440   1.084       .  S
C435        C436   1.405       .  A
C436        C437   1.416       .  A
C437        N438   1.429       .  S
N438        O442   1.262       .  A
N438        O443   1.262       .  A
N441        O445   1.262       .  A
N441        O444   1.262       .  A
C446        H453   1.093       .  S
C446        C447   1.397       .  A
C446        C451   1.392       .  A
C447        C448   1.415       .  A
C448        C449   1.400       .  A
C448        N455   1.428       .  S
C449        H454   1.091       .  S
C449        C450   1.404       .  A
C450        C451   1.420       .  A
C451        N452   1.429       .  S
N452        O456   1.262       .  A
N452        O457   1.262       .  A
N455        O459   1.262       .  A
N455        O458   1.262       .  A
C460        H467   1.087       .  S
C460        C461   1.401       .  A
C460        C465   1.394       .  A
C461        C462   1.409       .  A
C462        C463   1.394       .  A
C462        N469   1.429       .  S
C463        H468   1.088       .  S
C463        C464   1.404       .  A
C464        C465   1.414       .  A
C465        N466   1.429       .  S
N466        O470   1.262       .  A
N466        O471   1.262       .  A
N469        O473   1.262       .  A
N469        O472   1.262       .  A
C474        H481   1.087       .  S
C474        C475   1.404       .  A
C474        C479   1.396       .  A
C475        C476   1.416       .  A
C476        C477   1.392       .  A
C476        N483   1.429       .  S
C477        H482   1.087       .  S
C477        C478   1.400       .  A
C478        C479   1.413       .  A
C479        N480   1.429       .  S
N480        O484   1.262       .  A
N480        O485   1.262       .  A
N483        O487   1.262       .  A
N483        O486   1.262       .  A
C488        H495   1.085       .  S
C488        C489   1.404       .  A
C488        C493   1.396       .  A
C489        C490   1.414       .  A
C490        C491   1.401       .  A
C490        N497   1.433       .  S
C491        H496   1.084       .  S
C491        C492   1.403       .  A
C492        C493   1.409       .  A
C493        N494   1.430       .  S
N494        O498   1.262       .  A
N494        O499   1.262       .  A
N497        O501   1.262       .  A
N497        O500   1.262       .  A
C502        H509   1.084       .  S
C502        C503   1.403       .  A
C502        C507   1.401       .  A
C503        C504   1.413       .  A
C504        C505   1.397       .  A
C504        N511   1.431       .  S
C505        H510   1.084       .  S
C505        C506   1.406       .  A
C506        C507   1.416       .  A
C507        N508   1.434       .  S
N508        O512   1.263       .  A
N508        O513   1.262       .  A
N511        O515   1.262       .  A
N511        O514   1.262       .  A
C516        H523   1.084       .  S
C516        C517   1.402       .  A
C516        C521   1.397       .  A
C517        C518   1.410       .  A
C518        C519   1.399       .  A
C518        N525   1.430       .  S
C519        H524   1.084       .  S
C519        C520   1.403       .  A
C520        C521   1.409       .  A
C521        N522   1.430       .  S
N522        O526   1.260       .  A
N522        O527   1.262       .  A
N525        O529   1.262       .  A
N525        O528   1.262       .  A
C530        H537   1.083       .  S
C530        C531   1.407       .  A
C530        C535   1.399       .  A
C531        C532   1.411       .  A
C532        C533   1.396       .  A
C532        N539   1.424       .  S
C533        H538   1.085       .  S
C533        C534   1.398       .  A
C534        C535   1.410       .  A
C535        N536   1.433       .  S
N536        O540   1.262       .  A
N536        O541   1.262       .  A
N539        O543   1.261       .  A
N539        O542   1.262       .  A
