geometry optimzed in LAMMPS
_audit_creation_date              2020-11-30 
_audit_creation_method            'lammps2cif' 
_symmetry_space_group_name_H-M    'P1' 
_symmetry_Int_Tables_number       1 
_symmetry_cell_setting            triclinic 
loop_ 
_symmetry_equiv_pos_as_xyz 
  x,y,z 
_cell_length_a                    49.51517629530579 
_cell_length_b                    49.493596232091335 
_cell_length_c                    49.54644698487936 
_cell_angle_alpha                 89.9870697017429 
_cell_angle_beta                  89.9441126719466 
_cell_angle_gamma                 89.93001338920614 
loop_ 
_atom_site_label 
_atom_site_type_symbol 
_atom_site_fract_x 
_atom_site_fract_y 
_atom_site_fract_z 
_atom_site_charge 
N1          N  0.72742397  0.68786733  0.64608412    -0.27090
N2          N  0.71122689  0.70817232  0.63975018    -0.34950
C3          C  0.71864126  0.71820262  0.61562873     0.01250
C4          C  0.74083941  0.70386186  0.60669507     0.07280
C5          C  0.74602268  0.68489544  0.62647574    -0.05820
H6          H  0.70852406  0.73461134  0.60531189     0.07940
H7          H  0.76136089  0.66930804  0.62607236     0.09140
Cu8        Cu  0.67919414  0.72079089  0.66364016     0.44170
Cu9        Cu  0.72125392  0.66295742  0.67920000     0.41990
Cu10       Cu  0.66343196  0.67868750  0.72130038     0.43880
N11         N  0.64605066  0.72702476  0.68848876    -0.34480
N12         N  0.63960312  0.71081387  0.70871918    -0.28730
C13         C  0.61544365  0.71829367  0.71867668    -0.04830
C14         C  0.60661968  0.74054643  0.70436356     0.07380
C15         C  0.62649428  0.74568769  0.68549180     0.01180
H16         H  0.60502199  0.70817997  0.73500666     0.08830
H17         H  0.62618202  0.76103255  0.66993236     0.07910
N18         N  0.68839056  0.64557275  0.72750533    -0.35930
N19         N  0.70867470  0.63916331  0.71131901    -0.28110
C20         C  0.71872133  0.61504016  0.71880704    -0.03350
C21         C  0.70441296  0.60619273  0.74103512     0.05270
C22         C  0.68544851  0.62602024  0.74615777     0.03360
H23         H  0.73511086  0.60465832  0.70871514     0.08460
H24         H  0.66987557  0.62568099  0.76149158     0.07300
N25         N  0.27922084  0.70847167  0.35089527    -0.27090
N26         N  0.26304067  0.68824052  0.34441419    -0.34950
C27         C  0.24438428  0.68519929  0.36394696     0.01250
C28         C  0.24949685  0.70403997  0.38383733     0.07280
C29         C  0.27172586  0.71838066  0.37504803    -0.05820
H30         H  0.22905767  0.66962917  0.36422950     0.07940
H31         H  0.28181641  0.73470114  0.38549180     0.09140
Cu32       Cu  0.26927907  0.66345974  0.31123209     0.44170
Cu33       Cu  0.31133430  0.72113522  0.32713333     0.41990
Cu34       Cu  0.32704210  0.67918843  0.26923586     0.43880
N35         N  0.28185252  0.63969542  0.27909432    -0.34480
N36         N  0.30214332  0.64608984  0.26292998    -0.28730
C37         C  0.30510313  0.62655170  0.24426061    -0.04830
C38         C  0.28613377  0.60675630  0.24935036     0.07380
C39         C  0.27181506  0.61560655  0.27157914     0.01180
H40         H  0.32068880  0.62619570  0.22894067     0.08830
H41         H  0.25542874  0.60524188  0.28166227     0.07910
N42         N  0.35084154  0.71125891  0.28190576    -0.35930
N43         N  0.34444951  0.72738730  0.30222872    -0.28110
C44         C  0.36401570  0.74599582  0.30524066    -0.03350
C45         C  0.38383334  0.74090392  0.28627925     0.05270
C46         C  0.37496211  0.71874467  0.27189755     0.03360
H47         H  0.36436793  0.76127752  0.32085549     0.08460
H48         H  0.38533093  0.70869162  0.25548822     0.07300
N49         N  0.64587517  0.26341592  0.30250718    -0.27090
N50         N  0.63957876  0.27956251  0.28217722    -0.34950
C51         C  0.61549834  0.27211333  0.27210533     0.01250
C52         C  0.60654467  0.24995203  0.28645192     0.07280
C53         C  0.62627635  0.24482184  0.30546344    -0.05820
H54         H  0.60521459  0.28219115  0.25567154     0.07940
H55         H  0.62584508  0.22952102  0.32106222     0.09140
Cu56       Cu  0.66344936  0.31159840  0.26958955     0.44170
Cu57       Cu  0.67893922  0.26965997  0.32743442     0.41990
Cu58       Cu  0.72100140  0.32750030  0.31169976     0.43880
N59         N  0.68827466  0.34473249  0.26331649    -0.34480
N60         N  0.70846706  0.35122727  0.27952109    -0.28730
C61         C  0.71842834  0.37535297  0.27198721    -0.04830
C62         C  0.70416058  0.38410668  0.24970813     0.07380
C63         C  0.68530797  0.36422566  0.24460801     0.01180
H64         H  0.73473312  0.38580305  0.28208432     0.08830
H65         H  0.66978094  0.36449279  0.22925207     0.07910
N66         N  0.72717335  0.30259353  0.34481231    -0.35930
N67         N  0.71101105  0.28230659  0.35121354    -0.28110
C68         C  0.71848523  0.27229252  0.37531994    -0.03350
C69         C  0.74067250  0.28662777  0.38416884     0.05270
C70         C  0.74579287  0.30556907  0.36435592     0.03360
H71         H  0.70841353  0.25589952  0.38568819     0.08460
H72         H  0.76111091  0.32114578  0.36469133     0.07300
N73         N  0.30191211  0.34422351  0.72749359    -0.27090
N74         N  0.28162657  0.35060387  0.71133599    -0.34950
C75         C  0.27155091  0.37471875  0.71881318     0.01250
C76         C  0.28584117  0.38359696  0.74100637     0.07280
C77         C  0.30482884  0.36379332  0.74611953    -0.05820
H78         H  0.25516039  0.38508158  0.70872784     0.07940
H79         H  0.32040468  0.36416464  0.76142337     0.09140
Cu80       Cu  0.26910883  0.32680050  0.67924635     0.44170
Cu81       Cu  0.32688782  0.31112125  0.72123525     0.41990
Cu82       Cu  0.31122751  0.26905554  0.66347635     0.43880
N83         N  0.26294781  0.30197693  0.64609851    -0.34480
N84         N  0.27915269  0.28169936  0.63967315    -0.28730
C85         C  0.27172775  0.27175000  0.61553634    -0.04830
C86         C  0.24952290  0.28612222  0.60669285     0.07380
C87         C  0.24434463  0.30501624  0.62654103     0.01180
H88         H  0.28184939  0.25538722  0.60514099     0.08830
H89         H  0.22901053  0.32060842  0.62621593     0.07910
N90         N  0.34435354  0.26283822  0.68833168    -0.35930
N91         N  0.35074276  0.27902401  0.70858433    -0.28110
C92         C  0.37488276  0.27154704  0.71854713    -0.03350
C93         C  0.38376464  0.24932340  0.70422025     0.05270
C94         C  0.36393661  0.24419388  0.68533145     0.03360
H95         H  0.38525221  0.28164236  0.73490083     0.08460
H96         H  0.36429580  0.22886204  0.66976449     0.07300
N97         N  0.27941080  0.70814047  0.63930414    -0.27090
N98         N  0.26319423  0.68793006  0.64579691    -0.34950
C99         C  0.24455361  0.68492308  0.62628330     0.01250
C100        C  0.24971769  0.70376242  0.60638930     0.07280
C101        C  0.27195308  0.71807416  0.61515975    -0.05820
H102        H  0.22919650  0.66938345  0.62602137     0.07940
H103        H  0.28206552  0.73439375  0.60471516     0.09140
Cu104      Cu  0.26936023  0.66313565  0.67896690     0.44170
Cu105      Cu  0.31151071  0.72074347  0.66305426     0.41990
Cu106      Cu  0.32708748  0.67876226  0.72095235     0.43880
N107        N  0.28186504  0.63933783  0.71107812    -0.34480
N108        N  0.30213650  0.64569212  0.72724041    -0.28730
C109        C  0.30503203  0.62613800  0.74590369    -0.04830
C110        C  0.28604509  0.60637477  0.74080643     0.07380
C111        C  0.27177914  0.61525997  0.71858547     0.01180
H112        H  0.32058494  0.62575213  0.76123112     0.08830
H113        H  0.25538622  0.60493064  0.70850684     0.07910
N114        N  0.35091620  0.71083730  0.70829937    -0.35930
N115        N  0.34457384  0.72697496  0.68797334    -0.28110
C116        C  0.36413922  0.74559628  0.68498460    -0.03350
C117        C  0.38390242  0.74050523  0.70396729     0.05270
C118        C  0.37500243  0.71833025  0.71833384     0.03360
H119        H  0.36452664  0.76089030  0.66937800     0.08460
H120        H  0.38532729  0.70827367  0.73475454     0.07300
N121        N  0.70860934  0.63970053  0.27937852    -0.27090
N122        N  0.68839679  0.64622823  0.26318810    -0.34950
C123        C  0.68541926  0.62673815  0.24449482     0.01250
C124        C  0.70428660  0.60682299  0.24958607     0.07280
C125        C  0.71857462  0.61555337  0.27184605    -0.05820
H126        H  0.66986819  0.62649322  0.22916325     0.07940
H127        H  0.73488376  0.60506829  0.28193730     0.09140
Cu128      Cu  0.66353271  0.67938140  0.26946669     0.44170
Cu129      Cu  0.72115280  0.66339520  0.31156450     0.41990
Cu130      Cu  0.67912035  0.72133242  0.32722474     0.43880
N131        N  0.63965373  0.71144337  0.28208693    -0.34480
N132        N  0.64600604  0.72760759  0.30236519    -0.28730
C133        C  0.62640385  0.74623441  0.30535816    -0.04830
C134        C  0.60660748  0.74110790  0.28643139     0.07380
C135        C  0.61552593  0.71890928  0.27209474     0.01180
H136        H  0.62600928  0.76154910  0.32094111     0.08830
H137        H  0.60518815  0.70881998  0.25571696     0.07910
N138        N  0.71115928  0.70862521  0.35104705    -0.35930
N139        N  0.72731653  0.68828518  0.34468903    -0.28110
C140        C  0.74589963  0.68526172  0.36427282    -0.03350
C141        C  0.74075636  0.70423227  0.38406194     0.05270
C142        C  0.71859524  0.71862966  0.37515705     0.03360
H143        H  0.76120269  0.66964025  0.36465203     0.08460
H144        H  0.70851031  0.73505265  0.38549272     0.07300
N145        N  0.71121115  0.28166913  0.63974725    -0.27090
N146        N  0.72740615  0.30189076  0.64621821    -0.34950
C147        C  0.74603400  0.30493829  0.62665936     0.01250
C148        C  0.74088142  0.28611412  0.60676264     0.07280
C149        C  0.71866385  0.27177348  0.61557700    -0.05820
H150        H  0.76136649  0.32050225  0.62636417     0.07940
H151        H  0.70855248  0.25546203  0.60513939     0.09140
Cu152      Cu  0.72120099  0.32665664  0.67941782     0.44170
Cu153      Cu  0.67912470  0.26901588  0.66353682     0.41990
Cu154      Cu  0.66340234  0.31098207  0.72141173     0.43880
N155        N  0.70862676  0.35043573  0.71154465    -0.34480
N156        N  0.68832802  0.34406111  0.72770741    -0.28730
C157        C  0.68536741  0.36361603  0.74635877    -0.04830
C158        C  0.70434235  0.38340255  0.74125651     0.07380
C159        C  0.71866727  0.37452867  0.71904179     0.01180
H160        H  0.66977381  0.36399187  0.76167038     0.08830
H161        H  0.73505738  0.38488181  0.70895326     0.07910
N162        N  0.63957749  0.27894385  0.70871211    -0.35930
N163        N  0.64598404  0.26280415  0.68840310    -0.28110
C164        C  0.62639970  0.24422369  0.68535421    -0.03350
C165        C  0.60655257  0.24934821  0.70427286     0.05270
C166        C  0.61542608  0.27149454  0.71867324     0.03360
H167        H  0.62605598  0.22894227  0.66973901     0.08460
H168        H  0.60503989  0.28156200  0.73506283     0.07300
N169        N  0.27340029  0.44022106  0.20422510    -0.27090
N170        N  0.27894939  0.45343584  0.22675247    -0.34950
C171        C  0.28445925  0.43541753  0.24633997     0.01250
C172        C  0.28270166  0.40979625  0.23541346     0.07280
C173        C  0.27576906  0.41351635  0.20870787    -0.05820
H174        H  0.28935214  0.44058489  0.26697987     0.07940
H175        H  0.27162696  0.39796684  0.19392319     0.09140
Cu176      Cu  0.27878666  0.49537611  0.22975607     0.44170
Cu177      Cu  0.25967748  0.45880245  0.16942556     0.41990
Cu178      Cu  0.25945617  0.53187516  0.16948855     0.43880
N179        N  0.27903910  0.53731254  0.22668402    -0.34480
N180        N  0.27338086  0.55050897  0.20416113    -0.28730
C181        C  0.27582806  0.57721428  0.20856845    -0.04830
C182        C  0.28294289  0.58095505  0.23522240     0.07380
C183        C  0.28470301  0.55534254  0.24619704     0.01180
H184        H  0.27160775  0.59275202  0.19378125     0.08830
H185        H  0.28967946  0.55019124  0.26682483     0.07910
N186        N  0.24147225  0.50869213  0.13978034    -0.35930
N187        N  0.24160829  0.48196829  0.13971917    -0.28110
C188        C  0.22733816  0.47309536  0.11842387    -0.03350
C189        C  0.21772628  0.49532630  0.10465468     0.05270
C190        C  0.22708921  0.51755954  0.11854179     0.03360
H191        H  0.22406947  0.45205345  0.11347628     0.08460
H192        H  0.22361691  0.53859731  0.11368438     0.07300
N193        N  0.16832607  0.49579425  0.05062097    -0.27090
N194        N  0.19113389  0.49538580  0.03673270    -0.34950
C195        C  0.21210828  0.49509587  0.05387951     0.01250
C196        C  0.20199013  0.49534042  0.07976205     0.07280
C197        C  0.17421329  0.49579194  0.07714027    -0.05820
H198        H  0.23313311  0.49478742  0.04790466     0.07940
H199        H  0.15942452  0.49610169  0.09323001     0.09140
Cu200      Cu  0.19299979  0.49531869  0.99524980     0.44170
Cu201      Cu  0.13060785  0.49625637  0.03235341     0.41990
Cu202      Cu  0.13055929  0.49435346  0.95836535     0.43880
N203        N  0.19105866  0.49522644  0.95377501    -0.34480
N204        N  0.16822618  0.49480352  0.93997478    -0.28730
C205        C  0.17405422  0.49477920  0.91343528    -0.04830
C206        C  0.20181928  0.49523169  0.91070602     0.07380
C207        C  0.21199541  0.49550056  0.93654463     0.01180
H208        H  0.15922989  0.49444949  0.89740285     0.08830
H209        H  0.23303444  0.49581108  0.94243338     0.07910
N210        N  0.09596635  0.49473743  0.98205418    -0.35930
N211        N  0.09597273  0.49586388  0.00875539    -0.28110
C212        C  0.07028440  0.49631728  0.01760707    -0.03350
C213        C  0.05344157  0.49526956  0.99544843     0.05270
C214        C  0.07028129  0.49424910  0.97325708     0.03360
H215        H  0.06432385  0.49717040  0.03860579     0.08460
H216        H  0.06432038  0.49337823  0.95226908     0.07300
N217        N  0.27316975  0.55018219  0.78605886    -0.27090
N218        N  0.27873915  0.53696034  0.76352252    -0.34950
C219        C  0.28442137  0.55496949  0.74397697     0.01250
C220        C  0.28276611  0.58058737  0.75494574     0.07280
C221        C  0.27569329  0.57687647  0.78162659    -0.05820
H222        H  0.28935843  0.54979986  0.72333701     0.07940
H223        H  0.27156463  0.59243075  0.79642531     0.09140
Cu224      Cu  0.27842187  0.49501891  0.76047733     0.44170
Cu225      Cu  0.25929004  0.53163918  0.82081944     0.41990
Cu226      Cu  0.25914646  0.45858181  0.82082088     0.43880
N227        N  0.27866789  0.45307947  0.76358045    -0.34480
N228        N  0.27304539  0.43991552  0.78613397    -0.28730
C229        C  0.27551609  0.41320364  0.78175745    -0.04830
C230        C  0.28260577  0.40942138  0.75509066     0.07380
C231        C  0.28433213  0.43501598  0.74407482     0.01180
H232        H  0.27133518  0.39769085  0.79658128     0.08830
H233        H  0.28929953  0.44013223  0.72343077     0.07910
N234        N  0.24117225  0.48179896  0.85054865    -0.35930
N235        N  0.24126674  0.50852181  0.85058326    -0.28110
C236        C  0.22703093  0.51742613  0.87192793    -0.03350
C237        C  0.21749006  0.49521351  0.88575315     0.05270
C238        C  0.22685120  0.47296026  0.87185010     0.03360
H239        H  0.22374800  0.53847389  0.87687722     0.08460
H240        H  0.22342783  0.45192760  0.87674383     0.07300
N241        N  0.71701158  0.54995485  0.78632281    -0.27090
N242        N  0.71148564  0.53674906  0.76378467    -0.34950
C243        C  0.70592595  0.55477700  0.74421882     0.01250
C244        C  0.70762339  0.58039208  0.75517409     0.07280
C245        C  0.71457942  0.57665854  0.78187069    -0.05820
H246        H  0.70103883  0.54962114  0.72357459     0.07940
H247        H  0.71869266  0.59220111  0.79667083     0.09140
Cu248      Cu  0.71172057  0.49480449  0.76076038     0.44170
Cu249      Cu  0.73076421  0.53137312  0.82110431     0.41990
Cu250      Cu  0.73094007  0.45831751  0.82109354     0.43880
N251        N  0.71145523  0.45286479  0.76386490    -0.34480
N252        N  0.71705857  0.43968236  0.78641022    -0.28730
C253        C  0.71459719  0.41297573  0.78202383    -0.04830
C254        C  0.70753259  0.40921611  0.75536065     0.07380
C255        C  0.70581509  0.43482016  0.74435782     0.01180
H256        H  0.71877491  0.39744844  0.79683436     0.08830
H257        H  0.70087813  0.43995563  0.72371678     0.07910
N258        N  0.74892766  0.48150118  0.85079182    -0.35930
N259        N  0.74881567  0.50822447  0.85082683    -0.28110
C260        C  0.76308033  0.51710639  0.87212044    -0.03350
C261        C  0.77266465  0.49488070  0.88591484     0.05270
C262        C  0.76328825  0.47264123  0.87204785     0.03360
H263        H  0.76635498  0.53815019  0.87705555     0.08460
H264        H  0.76673144  0.45160505  0.87693343     0.07300
N265        N  0.71662568  0.55057011  0.20425061    -0.27090
N266        N  0.71101428  0.53737591  0.22678863    -0.34950
C267        C  0.70552995  0.55541066  0.24636963     0.01250
C268        C  0.70737189  0.58102461  0.23542494     0.07280
C269        C  0.71432397  0.57728204  0.20871511    -0.05820
H270        H  0.70061647  0.55026088  0.26701784     0.07940
H271        H  0.71853959  0.59281519  0.19392223     0.09140
Cu272      Cu  0.71113717  0.49544337  0.22980849     0.44170
Cu273      Cu  0.73038478  0.53192015  0.16949641     0.41990
Cu274      Cu  0.73020920  0.45883745  0.16945961     0.43880
N275        N  0.71096811  0.45351021  0.22682107    -0.34480
N276        N  0.71651103  0.44027836  0.20428485    -0.28730
C277        C  0.71417802  0.41357887  0.20878700    -0.04830
C278        C  0.70727480  0.40988260  0.23551516     0.07380
C279        C  0.70549779  0.43551086  0.24643421     0.01180
H280        H  0.71833293  0.39801793  0.19400230     0.08830
H281        H  0.70062869  0.44069517  0.26708622     0.07910
N282        N  0.74831662  0.48197436  0.13975982    -0.35930
N283        N  0.74843165  0.50869769  0.13981258    -0.28110
C284        C  0.76287704  0.51753801  0.11859513    -0.03350
C285        C  0.77230133  0.49528650  0.10473141     0.05270
C286        C  0.76265992  0.47307336  0.11848555     0.03360
H287        H  0.76634810  0.53857092  0.11373650     0.08460
H288        H  0.76595947  0.45202618  0.11354449     0.07300
N289        N  0.82178593  0.49568301  0.05069984    -0.27090
N290        N  0.79900232  0.49521620  0.03682079    -0.34950
C291        C  0.77800302  0.49494691  0.05397218     0.01250
C292        C  0.78808042  0.49526944  0.07984595     0.07280
C293        C  0.81585791  0.49574462  0.07721931    -0.05820
H294        H  0.75698690  0.49459945  0.04800495     0.07940
H295        H  0.83062175  0.49610592  0.09330686     0.09140
Cu296      Cu  0.79718646  0.49505051  0.99534987     0.44170
Cu297      Cu  0.85951663  0.49612147  0.03241703     0.41990
Cu298      Cu  0.85962486  0.49409554  0.95840131     0.43880
N299        N  0.79912335  0.49490883  0.95387985    -0.34480
N300        N  0.82195830  0.49449798  0.94003876    -0.28730
C301        C  0.81612503  0.49445855  0.91350814    -0.04830
C302        C  0.78835313  0.49488107  0.91083345     0.07380
C303        C  0.77818264  0.49515683  0.93669380     0.01180
H304        H  0.83094568  0.49414587  0.89744797     0.08830
H305        H  0.75714607  0.49546709  0.94262730     0.07910
N306        N  0.89419822  0.49453694  0.98208049    -0.35930
N307        N  0.89415731  0.49570825  0.00878066    -0.28110
C308        C  0.91982989  0.49621384  0.01761745    -0.03350
C309        C  0.93670610  0.49515651  0.99545360     0.05270
C310        C  0.91989979  0.49407006  0.97327157     0.03360
H311        H  0.92575774  0.49711784  0.03861319     0.08460
H312        H  0.92589406  0.49317957  0.95228372     0.07300
N313        N  0.44013494  0.20461688  0.27363750    -0.27090
N314        N  0.45326676  0.22723704  0.27907149    -0.34950
C315        C  0.43518556  0.24679276  0.28461419     0.01250
C316        C  0.40961888  0.23575218  0.28300261     0.07280
C317        C  0.41343252  0.20901621  0.27610876    -0.05820
H318        H  0.44027443  0.26748819  0.28944529     0.07940
H319        H  0.39793985  0.19414360  0.27207826     0.09140
Cu320      Cu  0.49518648  0.23043382  0.27880822     0.44170
Cu321      Cu  0.45874890  0.16973657  0.25999354     0.41990
Cu322      Cu  0.53173391  0.17030303  0.25922780     0.43880
N323        N  0.53712441  0.22740957  0.27912391    -0.34480
N324        N  0.55032852  0.20488143  0.27337548    -0.28730
C325        C  0.57701528  0.20923600  0.27591025    -0.04830
C326        C  0.58074696  0.23587185  0.28318173     0.07380
C327        C  0.55514321  0.24689178  0.28493669     0.01180
H328        H  0.59254677  0.19443278  0.27163701     0.08830
H329        H  0.54999392  0.26752501  0.29000528     0.07910
N330        N  0.50868869  0.14049515  0.24130817    -0.35930
N331        N  0.48198750  0.14006830  0.24185408    -0.28110
C332        C  0.47322778  0.11854932  0.22781715    -0.03350
C333        C  0.49551641  0.10510524  0.21783590     0.05270
C334        C  0.51765563  0.11937508  0.22678094     0.03360
H335        H  0.45222552  0.11327522  0.22489011     0.08460
H336        H  0.53870116  0.11477729  0.22304896     0.07300
N337        N  0.49824552  0.05066795  0.16890041    -0.27090
N338        N  0.49590486  0.03695557  0.19167951    -0.34950
C339        C  0.49428261  0.05427956  0.21246016     0.01250
C340        C  0.49574903  0.08009800  0.20224788     0.07280
C341        C  0.49832299  0.07725275  0.17462226    -0.05820
H342        H  0.49244159  0.04846308  0.23343627     0.07940
H343        H  0.50003772  0.09323785  0.15981816     0.09140
Cu344      Cu  0.49538359  0.99547029  0.19376165     0.44170
Cu345      Cu  0.50038342  0.03207118  0.13140374     0.41990
Cu346      Cu  0.49029565  0.95868968  0.13153182     0.43880
N347        N  0.49480652  0.95398094  0.19180892    -0.34480
N348        N  0.49241602  0.94020787  0.16908219    -0.28730
C349        C  0.49227657  0.91364136  0.17489162    -0.04830
C350        C  0.49486733  0.91087067  0.20251775     0.07380
C351        C  0.49640603  0.93671307  0.21264144     0.01180
H352        H  0.49051047  0.89761627  0.16014368     0.08830
H353        H  0.49827046  0.94258504  0.23359520     0.07910
N354        N  0.49282388  0.98221308  0.09692636    -0.35930
N355        N  0.49787352  0.00844085  0.09687644    -0.28110
C356        C  0.49978603  0.01701170  0.07119845    -0.03350
C357        C  0.49534362  0.99526030  0.05414157     0.05270
C358        C  0.49090628  0.97356278  0.07128392     0.03360
H359        H  0.50417725  0.03762422  0.06542635     0.08460
H360        H  0.48650469  0.95293331  0.06559404     0.07300
N361        N  0.44007520  0.78608024  0.27354809    -0.27090
N362        N  0.45327280  0.76354552  0.27926988    -0.34950
C363        C  0.43524278  0.74401833  0.28494070     0.01250
C364        C  0.40963624  0.75501269  0.28311269     0.07280
C365        C  0.41337952  0.78168423  0.27596010    -0.05820
H366        H  0.44038659  0.72337351  0.28996356     0.07940
H367        H  0.39785536  0.79648858  0.27168164     0.09140
Cu368      Cu  0.49521710  0.76056380  0.27907367     0.44170
Cu369      Cu  0.45870463  0.82071783  0.25955318     0.41990
Cu370      Cu  0.53169641  0.82130233  0.26042267     0.43880
N371        N  0.53713867  0.76375588  0.27937039    -0.34480
N372        N  0.55028363  0.78639068  0.27399569    -0.28730
C373        C  0.57698173  0.78197895  0.27644424    -0.04830
C374        C  0.58078034  0.75521949  0.28326062     0.07380
C375        C  0.55520806  0.74417833  0.28484964     0.01180
H376        H  0.59248258  0.79685848  0.27243961     0.08830
H377        H  0.55010831  0.72346659  0.28961358     0.07910
N378        N  0.50850426  0.85097500  0.24226887    -0.35930
N379        N  0.48180524  0.85053730  0.24167791    -0.28110
C380        C  0.47288292  0.87163745  0.22710414    -0.03350
C381        C  0.49504906  0.88590959  0.21818437     0.05270
C382        C  0.51730664  0.87248550  0.22822067     0.03360
H383        H  0.45184874  0.87621192  0.22331179     0.08460
H384        H  0.53831747  0.87775341  0.22530374     0.07300
N385        N  0.44009367  0.78568147  0.71681338    -0.27090
N386        N  0.45330934  0.76316651  0.71104219    -0.34950
C387        C  0.43530217  0.74364787  0.70531889     0.01250
C388        C  0.40968835  0.75462563  0.70716411     0.07280
C389        C  0.41340424  0.78127999  0.71438327    -0.05820
H390        H  0.44046679  0.72301702  0.70025704     0.07940
H391        H  0.39786446  0.79606328  0.71869575     0.09140
Cu392      Cu  0.49524246  0.76018566  0.71128022     0.44170
Cu393      Cu  0.45870162  0.82028322  0.73089938     0.41990
Cu394      Cu  0.53170724  0.82088777  0.73000731     0.43880
N395        N  0.53715835  0.76332124  0.71113201    -0.34480
N396        N  0.55030934  0.78594031  0.71652248    -0.28730
C397        C  0.57701317  0.78147329  0.71420137    -0.04830
C398        C  0.58080225  0.75469304  0.70746629     0.07380
C399        C  0.55522263  0.74370033  0.70577239     0.01180
H400        H  0.59251832  0.79633171  0.71823780     0.08830
H401        H  0.55011285  0.72299367  0.70101351     0.07910
N402        N  0.50847781  0.85050150  0.74824608    -0.35930
N403        N  0.48177788  0.85005023  0.74885635    -0.28110
C404        C  0.47283143  0.87110098  0.76349689    -0.03350
C405        C  0.49498167  0.88534872  0.77245075     0.05270
C406        C  0.51725490  0.87197036  0.76234837     0.03360
H407        H  0.45179177  0.87566912  0.76729669     0.08460
H408        H  0.53826053  0.87724907  0.76524524     0.07300
N409        N  0.44006573  0.20395330  0.71648094    -0.27090
N410        N  0.45322472  0.22658712  0.71113427    -0.34950
C411        C  0.43516650  0.24619833  0.70573649     0.01250
C412        C  0.40958443  0.23518443  0.70735336     0.07280
C413        C  0.41336764  0.20840171  0.71409211    -0.05820
H414        H  0.44028102  0.26691352  0.70100435     0.07940
H415        H  0.39785758  0.19352836  0.71808481     0.09140
Cu416      Cu  0.49514934  0.22974590  0.71137293     0.44170
Cu417      Cu  0.45863711  0.16899442  0.72997108     0.41990
Cu418      Cu  0.53162477  0.16954991  0.73077426     0.43880
N419        N  0.53709184  0.22674750  0.71117311    -0.34480
N420        N  0.55027231  0.20419082  0.71684487    -0.28730
C421        C  0.57697106  0.20857398  0.71446631    -0.04830
C422        C  0.58073576  0.23526114  0.70739194     0.07380
C423        C  0.55513849  0.24627866  0.70556961     0.01180
H424        H  0.59248213  0.19374886  0.71872179     0.08830
H425        H  0.55001260  0.26694028  0.70059852     0.07910
N426        N  0.50853743  0.13976793  0.74870404    -0.35930
N427        N  0.48183817  0.13933045  0.74813850    -0.28110
C428        C  0.47305173  0.11784632  0.76223812    -0.03350
C429        C  0.49532190  0.10444861  0.77228509     0.05270
C430        C  0.51747654  0.11870057  0.76331166     0.03360
H431        H  0.45204476  0.11257864  0.76518198     0.08460
H432        H  0.53851547  0.11413294  0.76708750     0.07300
N433        N  0.49225259  0.93968979  0.82150275    -0.27090
N434        N  0.49464893  0.95343606  0.79875036    -0.34950
C435        C  0.49628815  0.93615062  0.77794149     0.01250
C436        C  0.49476836  0.91031727  0.78810134     0.07280
C437        C  0.49214726  0.91311430  0.81573040    -0.05820
H438        H  0.49816405  0.94200486  0.75697900     0.07940
H439        H  0.49038428  0.89710364  0.83050125     0.09140
Cu440      Cu  0.49517978  0.99491286  0.79672234     0.44170
Cu441      Cu  0.49009648  0.95825612  0.85902281     0.41990
Cu442      Cu  0.50033743  0.03165661  0.85892463     0.43880
N443        N  0.49569641  0.03639206  0.79867208    -0.34480
N444        N  0.49812158  0.05016565  0.82139336    -0.28730
C445        C  0.49820535  0.07673285  0.81558401    -0.04830
C446        C  0.49553342  0.07949779  0.78796379     0.07380
C447        C  0.49401557  0.05365468  0.77784395     0.01180
H448        H  0.49999185  0.09276087  0.83032627     0.08830
H449        H  0.49211816  0.04777845  0.75689440     0.07910
N450        N  0.49778937  0.00810387  0.89350904    -0.35930
N451        N  0.49266839  0.98188891  0.89355416    -0.28110
C452        C  0.49073705  0.97332117  0.91923288    -0.03350
C453        C  0.49524263  0.99505838  0.93629276     0.05270
C454        C  0.49973810  0.01674410  0.91915212     0.03360
H455        H  0.48628859  0.95272086  0.92500360     0.08460
H456        H  0.50419548  0.03736108  0.92484289     0.07300
N457        N  0.34439442  0.26331355  0.30228532    -0.27090
N458        N  0.35071134  0.27948264  0.28197988    -0.34950
C459        C  0.37483531  0.27203504  0.27191972     0.01250
C460        C  0.38378577  0.24984450  0.28624230     0.07280
C461        C  0.36401490  0.24470365  0.30523106    -0.05820
H462        H  0.38514617  0.28212847  0.25550718     0.07940
H463        H  0.36443628  0.22938919  0.32081799     0.09140
Cu464      Cu  0.32678907  0.31152226  0.26940075     0.44170
Cu465      Cu  0.31129512  0.26954081  0.32723177     0.41990
Cu466      Cu  0.26912755  0.32735500  0.31155903     0.43880
N467        N  0.30186202  0.34463466  0.26315433    -0.34480
N468        N  0.28162563  0.35110263  0.27937370    -0.28730
C469        C  0.27159822  0.37522680  0.27186088    -0.04830
C470        C  0.28587111  0.38400702  0.24958044     0.07380
C471        C  0.30479472  0.36414323  0.24445724     0.01180
H472        H  0.25525311  0.38565801  0.28197417     0.08830
H473        H  0.32034382  0.36443399  0.22909817     0.07910
N474        N  0.26299643  0.30246301  0.34469673    -0.35930
N475        N  0.27921038  0.28218330  0.35107764    -0.28110
C476        C  0.27176527  0.27217693  0.37520295    -0.03350
C477        C  0.24953388  0.28650475  0.38408506     0.05270
C478        C  0.24436491  0.30543898  0.36427291     0.03360
H479        H  0.28188159  0.25579138  0.38555693     0.08460
H480        H  0.22900830  0.32100927  0.36463117     0.07300
N481        N  0.93994280  0.16904970  0.49318741    -0.27090
N482        N  0.95374511  0.19183511  0.49482760    -0.34950
C483        C  0.93651029  0.21275700  0.49596904     0.01250
C484        C  0.91066322  0.20262479  0.49494326     0.07280
C485        C  0.91339065  0.17490094  0.49313654    -0.05820
H486        H  0.94240497  0.23376543  0.49726120     0.07940
H487        H  0.89734835  0.16011766  0.49193904     0.09140
Cu488      Cu  0.99522290  0.19375045  0.49519090     0.44170
Cu489      Cu  0.95836634  0.13140202  0.49169591     0.41990
Cu490      Cu  0.03209627  0.13136780  0.49882653     0.43880
N491        N  0.03670401  0.19179505  0.49560502    -0.34480
N492        N  0.05052222  0.16899007  0.49730598    -0.28730
C493        C  0.07707144  0.17480604  0.49740824    -0.04830
C494        C  0.07978015  0.20252880  0.49556757     0.07380
C495        C  0.05392118  0.21269338  0.49447195     0.01180
H496        H  0.09312139  0.16000484  0.49866870     0.08830
H497        H  0.04800708  0.23370639  0.49314867     0.07910
N498        N  0.00847625  0.09678111  0.49707825    -0.35930
N499        N  0.98200878  0.09679757  0.49350769    -0.28110
C500        C  0.97329949  0.07111702  0.49218924    -0.03350
C501        C  0.99525246  0.05402559  0.49535662     0.05270
C502        C  0.01719831  0.07108572  0.49847131     0.03360
H503        H  0.95246759  0.06534860  0.48905743     0.08460
H504        H  0.03802953  0.06528556  0.50162678     0.07300
N505        N  0.20423053  0.27402705  0.44032709    -0.27090
N506        N  0.22682698  0.27943096  0.45348665    -0.34950
C507        C  0.24640733  0.28492393  0.43545065     0.01250
C508        C  0.23540732  0.28331189  0.40988094     0.07280
C509        C  0.20866756  0.27647368  0.41364874    -0.05820
H510        H  0.26709309  0.28971208  0.44057151     0.07940
H511        H  0.19382139  0.27245025  0.39814175     0.09140
Cu512      Cu  0.22995185  0.27913091  0.49537939     0.44170
Cu513      Cu  0.16935571  0.26040127  0.45888945     0.41990
Cu514      Cu  0.16968609  0.25979765  0.53182736     0.43880
N515        N  0.22691442  0.27927620  0.53728399    -0.34480
N516        N  0.20435915  0.27364287  0.55045229    -0.28730
C517        C  0.20875014  0.27599912  0.57713423    -0.04830
C518        C  0.23543517  0.28301390  0.58089625     0.07380
C519        C  0.24644431  0.28482724  0.55531743     0.01180
H520        H  0.19392861  0.27177468  0.59263747     0.08830
H521        H  0.26709984  0.28976842  0.55019278     0.07910
N522        N  0.13994150  0.24185330  0.50872571    -0.35930
N523        N  0.13966545  0.24226077  0.48203695    -0.28110
C524        C  0.11826327  0.22810226  0.47321379    -0.03350
C525        C  0.10471171  0.21821570  0.49544703     0.05270
C526        C  0.11880742  0.22733075  0.51762276     0.03360
H527        H  0.11313148  0.22504383  0.45220716     0.08460
H528        H  0.11411542  0.22366811  0.53864291     0.07300
N529        N  0.78592394  0.27391144  0.44031253    -0.27090
N530        N  0.76338017  0.27953124  0.45352541    -0.34950
C531        C  0.74382234  0.28517059  0.43553326     0.01250
C532        C  0.75480215  0.28342873  0.40993590     0.07280
C533        C  0.78149858  0.27636166  0.41364308    -0.05820
H534        H  0.72316893  0.29011969  0.44069752     0.07940
H535        H  0.79630526  0.27216687  0.39810971     0.09140
Cu536      Cu  0.76039923  0.27924365  0.49543175     0.44170
Cu537      Cu  0.82062911  0.25998166  0.45886515     0.41990
Cu538      Cu  0.82110006  0.26052207  0.53181379     0.43880
N539        N  0.76355754  0.27939517  0.53732055    -0.34480
N540        N  0.78619354  0.27400804  0.55044245    -0.28730
C541        C  0.78176845  0.27632840  0.57713207    -0.04830
C542        C  0.75499431  0.28306070  0.58094497     0.07380
C543        C  0.74396173  0.28474918  0.55539223     0.01180
H544        H  0.79664860  0.27228269  0.59261046     0.08830
H545        H  0.72324698  0.28949362  0.55030755     0.07910
N546        N  0.85076632  0.24240072  0.50859838    -0.35930
N547        N  0.85043574  0.24200839  0.48191052    -0.28110
C548        C  0.87157195  0.22747390  0.47296860    -0.03350
C549        C  0.88572206  0.21833782  0.49511537     0.05270
C550        C  0.87220436  0.22821818  0.51737768     0.03360
H551        H  0.87622603  0.22381540  0.45193807     0.08460
H552        H  0.87738011  0.22513685  0.53837398     0.07300
N553        N  0.78585859  0.71694696  0.44030806    -0.27090
N554        N  0.76330959  0.71128317  0.45347450    -0.34950
C555        C  0.74380873  0.70563300  0.43543929     0.01250
C556        C  0.75483101  0.70740802  0.40986180     0.07280
C557        C  0.78149247  0.71451384  0.41362756    -0.05820
H558        H  0.72316284  0.70064836  0.44056140     0.07940
H559        H  0.79631392  0.71874033  0.39812508     0.09140
Cu560      Cu  0.76025779  0.71147575  0.49538366     0.44170
Cu561      Cu  0.82050356  0.73087336  0.45893544     0.41990
Cu562      Cu  0.82091847  0.73007122  0.53185778     0.43880
N563        N  0.76343423  0.71109416  0.53727675    -0.34480
N564        N  0.78605529  0.71644031  0.55041801    -0.28730
C565        C  0.78166148  0.71392091  0.57709527    -0.04830
C566        C  0.75492577  0.70709008  0.58088545     0.07380
C567        C  0.74387928  0.70556582  0.55532954     0.01180
H568        H  0.79653578  0.71789050  0.59258929     0.08830
H569        H  0.72318074  0.70080989  0.55022988     0.07910
N570        N  0.85061359  0.74822016  0.50873841    -0.35930
N571        N  0.85029707  0.74872598  0.48205220    -0.28110
C572        C  0.87144990  0.76323567  0.47317808    -0.03350
C573        C  0.88560335  0.77222917  0.49536761     0.05270
C574        C  0.87206328  0.76229102  0.51758334     0.03360
H575        H  0.87612285  0.76696109  0.45216514     0.08460
H576        H  0.87723204  0.76526008  0.53859415     0.07300
N577        N  0.20413379  0.71615258  0.44012273    -0.27090
N578        N  0.22675323  0.71072718  0.45325759    -0.34950
C579        C  0.24635937  0.70536509  0.43520094     0.01250
C580        C  0.23535466  0.70709012  0.40964039     0.07280
C581        C  0.20858266  0.71385037  0.41343415    -0.05820
H582        H  0.26706442  0.70059527  0.44030173     0.07940
H583        H  0.19372214  0.71792569  0.39794504     0.09140
Cu584      Cu  0.22989653  0.71086341  0.49514002     0.44170
Cu585      Cu  0.16922268  0.72965619  0.45874896     0.41990
Cu586      Cu  0.16964724  0.73001450  0.53170762     0.43880
N587        N  0.22694555  0.71063447  0.53704026    -0.34480
N588        N  0.20439161  0.71620102  0.55025682    -0.28730
C589        C  0.20884486  0.71382978  0.57692684    -0.04830
C590        C  0.23557116  0.70687941  0.58062732     0.07380
C591        C  0.24653891  0.70511280  0.55502826     0.01180
H592        H  0.19403509  0.71800700  0.59246207     0.08830
H593        H  0.26720582  0.70022590  0.54985956     0.07910
N594        N  0.13985968  0.74804134  0.50869079    -0.35930
N595        N  0.13954946  0.74773741  0.48200126    -0.28110
C596        C  0.11813154  0.76197403  0.47325611    -0.03350
C597        C  0.10460800  0.77179260  0.49554418     0.05270
C598        C  0.11873266  0.76256570  0.51766773     0.03360
H599        H  0.11297378  0.76513403  0.45226729     0.08460
H600        H  0.11407425  0.76616573  0.53870762     0.07300
N601        N  0.05045253  0.82114793  0.49764069    -0.27090
N602        N  0.03661866  0.79837967  0.49602278    -0.34950
C603        C  0.05382542  0.77743844  0.49481351     0.01250
C604        C  0.07968761  0.78753895  0.49576342     0.07280
C605        C  0.07699809  0.81526458  0.49760536    -0.05820
H606        H  0.04790188  0.75643790  0.49352623     0.07940
H607        H  0.09306163  0.83002721  0.49877473     0.09140
Cu608      Cu  0.99513761  0.79650752  0.49575102     0.44720
Cu609      Cu  0.03208054  0.85882094  0.49920704     0.41990
Cu610      Cu  0.95837110  0.85893434  0.49194569     0.43880
N611        N  0.95365939  0.79852516  0.49530260    -0.34480
N612        N  0.93988371  0.82134836  0.49350819    -0.28730
C613        C  0.91332552  0.81557884  0.49335834    -0.04830
C614        C  0.91056439  0.78786738  0.49527273     0.07380
C615        C  0.93640313  0.77766005  0.49645970     0.01180
H616        H  0.89730463  0.83040442  0.49201954     0.08830
H617        H  0.94227743  0.75663978  0.49784458     0.07910
N618        N  0.98201791  0.89349506  0.49375396    -0.35930
N619        N  0.00847612  0.89345417  0.49738993    -0.28110
C620        C  0.01720116  0.91912778  0.49875151    -0.03350
C621        C  0.99526813  0.93623858  0.49554207     0.05270
C622        C  0.97331859  0.91919718  0.49235757     0.03360
H623        H  0.03802947  0.92487790  0.50193832     0.08460
H624        H  0.95249957  0.92501433  0.48915390     0.07300
C625        C  0.99525898  0.02387049  0.49540846    -0.05140
C626        C  0.97581685  0.00943273  0.51059528    -0.02250
C627        C  0.97580896  0.98091162  0.51062281     0.02730
C628        C  0.99527789  0.96639394  0.49550843    -0.05140
C629        C  0.01474310  0.98083214  0.48035055    -0.02240
C630        C  0.01471088  0.00935344  0.48027308     0.02730
C631        C  0.95628725  0.02378576  0.52712667     0.37380
C632        C  0.03435050  0.96647914  0.46391177     0.37370
C633        C  0.03421790  0.02362586  0.46367905     0.35800
C634        C  0.95622521  0.96663924  0.52712636     0.35800
N635        N  0.04985702  0.03489091  0.45045472    -0.39020
N636        N  0.94051232  0.95537600  0.54026455    -0.39030
N637        N  0.05008720  0.95515755  0.45082455    -0.38470
N638        N  0.94062505  0.03510897  0.54030138    -0.38470
C639        C  0.49526365  0.99510720  0.96646748    -0.05140
C640        C  0.48211333  0.01599681  0.98095168    -0.02250
C641        C  0.48211352  0.01602981  0.00945256     0.02730
C642        C  0.49532255  0.99521244  0.02396764    -0.05140
C643        C  0.50850413  0.97434363  0.00948425    -0.02240
C644        C  0.50844563  0.97427253  0.98098355     0.02730
C645        C  0.46760766  0.03713748  0.96670152     0.37380
C646        C  0.52312150  0.95328070  0.02373540     0.37370
C647        C  0.52292793  0.95308546  0.96676019     0.35800
C648        C  0.46752967  0.03714753  0.02367632     0.35800
N649        N  0.53442875  0.93605929  0.95557788    -0.39020
N650        N  0.45593346  0.05410752  0.03486085    -0.39030
N651        N  0.53474516  0.93636399  0.03494177    -0.38470
N652        N  0.45608950  0.05412923  0.95549950    -0.38470
C653        C  0.02358026  0.49523702  0.99547034    -0.05140
C654        C  0.00925643  0.51946869  0.00005795    -0.02250
C655        C  0.98077958  0.51944639  0.00003219     0.02730
C656        C  0.96656750  0.49518348  0.99546781    -0.05140
C657        C  0.98089141  0.47094710  0.99090573    -0.02240
C658        C  0.00936806  0.47097937  0.99087730     0.02730
C659        C  0.02385538  0.54450338  0.00429607     0.37380
C660        C  0.96629332  0.44589673  0.98675716     0.37370
C661        C  0.02407959  0.44597613  0.98661055     0.35800
C662        C  0.96606858  0.54447009  0.00417828     0.35800
N663        N  0.03584605  0.42603707  0.98326277    -0.39020
N664        N  0.95430244  0.56442858  0.00740932    -0.39030
N665        N  0.95461288  0.42592010  0.98352525    -0.38470
N666        N  0.03553683  0.56446485  0.00761617    -0.38470
loop_ 
_geom_bond_atom_site_label_1 
_geom_bond_atom_site_label_2 
_geom_bond_distance 
_geom_bond_site_symmetry_2 
_ccdc_geom_bond_type 
N1            N2   1.323       .  A
N1            C5   1.346       .  A
N1           Cu9   2.075       .  S
N2            C3   1.345       .  A
N2           Cu8   2.074       .  S
C3            C4   1.380       .  A
C3            H6   1.082       .  S
C4            C5   1.381       .  A
C4          C566   1.465       .  S
C5            H7   1.082       .  S
Cu8          N11   2.073       .  S
Cu9          N19   2.075       .  S
Cu10         N12   2.075       .  S
Cu10         N18   2.075       .  S
N11          N12   1.323       .  A
N11          C15   1.346       .  A
N12          C13   1.345       .  A
C13          C14   1.381       .  A
C13          H16   1.082       .  S
C14          C15   1.381       .  A
C14         C398   1.465       .  S
C15          H17   1.082       .  S
N18          N19   1.323       .  A
N18          C22   1.346       .  A
N19          C20   1.345       .  A
C20          C21   1.380       .  A
C20          H23   1.082       .  S
C21          C22   1.381       .  A
C21         C244   1.465       .  S
C22          H24   1.082       .  S
N25          N26   1.323       .  A
N25          C29   1.345       .  A
N25         Cu33   2.075       .  S
N26          C27   1.346       .  A
N26         Cu32   2.074       .  S
C27          C28   1.381       .  A
C27          H30   1.082       .  S
C28          C29   1.380       .  A
C28         C580   1.465       .  S
C29          H31   1.082       .  S
Cu32         N35   2.075       .  S
Cu33         N43   2.075       .  S
Cu34         N36   2.075       .  S
Cu34         N42   2.076       .  S
N35          N36   1.323       .  A
N35          C39   1.345       .  A
N36          C37   1.346       .  A
C37          C38   1.381       .  A
C37          H40   1.082       .  S
C38          C39   1.380       .  A
C38         C182   1.465       .  S
C39          H41   1.082       .  S
N42          N43   1.323       .  A
N42          C46   1.345       .  A
N43          C44   1.346       .  A
C44          C45   1.381       .  A
C44          H47   1.082       .  S
C45          C46   1.380       .  A
C45         C364   1.465       .  S
C46          H48   1.082       .  S
N49          N50   1.323       .  A
N49          C53   1.346       .  A
N49         Cu57   2.075       .  S
N50          C51   1.345       .  A
N50         Cu56   2.074       .  S
C51          C52   1.380       .  A
C51          H54   1.082       .  S
C52          C53   1.381       .  A
C52         C326   1.465       .  S
C53          H55   1.082       .  S
Cu56         N59   2.074       .  S
Cu57         N67   2.076       .  S
Cu58         N60   2.075       .  S
Cu58         N66   2.075       .  S
N59          N60   1.323       .  A
N59          C63   1.346       .  A
N60          C61   1.345       .  A
C61          C62   1.381       .  A
C61          H64   1.082       .  S
C62          C63   1.381       .  A
C62         C278   1.465       .  S
C63          H65   1.082       .  S
N66          N67   1.323       .  A
N66          C70   1.346       .  A
N67          C68   1.345       .  A
C68          C69   1.380       .  A
C68          H71   1.082       .  S
C69          C70   1.381       .  A
C69         C532   1.465       .  S
C70          H72   1.082       .  S
N73          N74   1.323       .  A
N73          C77   1.346       .  A
N73         Cu81   2.075       .  S
N74          C75   1.345       .  A
N74         Cu80   2.075       .  S
C75          C76   1.380       .  A
C75          H78   1.082       .  S
C76          C77   1.381       .  A
C76         C230   1.465       .  S
C77          H79   1.082       .  S
Cu80         N83   2.074       .  S
Cu81         N91   2.075       .  S
Cu82         N84   2.075       .  S
Cu82         N90   2.075       .  S
N83          N84   1.323       .  A
N83          C87   1.346       .  A
N84          C85   1.345       .  A
C85          C86   1.380       .  A
C85          H88   1.082       .  S
C86          C87   1.381       .  A
C86         C518   1.465       .  S
C87          H89   1.082       .  S
N90          N91   1.323       .  A
N90          C94   1.346       .  A
N91          C92   1.345       .  A
C92          C93   1.380       .  A
C92          H95   1.082       .  S
C93          C94   1.381       .  A
C93         C412   1.465       .  S
C94          H96   1.082       .  S
N97          N98   1.323       .  A
N97         C101   1.345       .  A
N97        Cu105   2.075       .  S
N98          C99   1.346       .  A
N98        Cu104   2.073       .  S
C99         C100   1.381       .  A
C99         H102   1.082       .  S
C100        C101   1.380       .  A
C100        C590   1.465       .  S
C101        H103   1.082       .  S
Cu104       N107   2.074       .  S
Cu105       N115   2.075       .  S
Cu106       N108   2.075       .  S
Cu106       N114   2.076       .  S
N107        N108   1.323       .  A
N107        C111   1.345       .  A
N108        C109   1.346       .  A
C109        C110   1.381       .  A
C109        H112   1.082       .  S
C110        C111   1.380       .  A
C110        C220   1.465       .  S
C111        H113   1.082       .  S
N114        N115   1.323       .  A
N114        C118   1.345       .  A
N115        C116   1.346       .  A
C116        C117   1.381       .  A
C116        H119   1.082       .  S
C117        C118   1.380       .  A
C117        C388   1.465       .  S
C118        H120   1.082       .  S
N121        N122   1.323       .  A
N121        C125   1.345       .  A
N121       Cu129   2.076       .  S
N122        C123   1.346       .  A
N122       Cu128   2.074       .  S
C123        C124   1.381       .  A
C123        H126   1.082       .  S
C124        C125   1.381       .  A
C124        C268   1.465       .  S
C125        H127   1.082       .  S
Cu128       N131   2.074       .  S
Cu129       N139   2.075       .  S
Cu130       N132   2.075       .  S
Cu130       N138   2.075       .  S
N131        N132   1.323       .  A
N131        C135   1.345       .  A
N132        C133   1.346       .  A
C133        C134   1.381       .  A
C133        H136   1.082       .  S
C134        C135   1.380       .  A
C134        C374   1.465       .  S
C135        H137   1.082       .  S
N138        N139   1.323       .  A
N138        C142   1.345       .  A
N139        C140   1.346       .  A
C140        C141   1.381       .  A
C140        H143   1.082       .  S
C141        C142   1.380       .  A
C141        C556   1.465       .  S
C142        H144   1.082       .  S
N145        N146   1.323       .  A
N145        C149   1.345       .  A
N145       Cu153   2.075       .  S
N146        C147   1.346       .  A
N146       Cu152   2.074       .  S
C147        C148   1.381       .  A
C147        H150   1.082       .  S
C148        C149   1.380       .  A
C148        C542   1.465       .  S
C149        H151   1.082       .  S
Cu152       N155   2.075       .  S
Cu153       N163   2.074       .  S
Cu154       N156   2.075       .  S
Cu154       N162   2.076       .  S
N155        N156   1.323       .  A
N155        C159   1.345       .  A
N156        C157   1.346       .  A
C157        C158   1.381       .  A
C157        H160   1.082       .  S
C158        C159   1.380       .  A
C158        C254   1.465       .  S
C159        H161   1.082       .  S
N162        N163   1.323       .  A
N162        C166   1.345       .  A
N163        C164   1.346       .  A
C164        C165   1.381       .  A
C164        H167   1.082       .  S
C165        C166   1.380       .  A
C165        C422   1.465       .  S
C166        H168   1.082       .  S
N169        N170   1.323       .  A
N169        C173   1.345       .  A
N169       Cu177   2.069       .  S
N170        C171   1.346       .  A
N170       Cu176   2.081       .  S
C171        C172   1.382       .  A
C171        H174   1.082       .  S
C172        C173   1.380       .  A
C172        C470   1.465       .  S
C173        H175   1.083       .  S
Cu176       N179   2.081       .  S
Cu177       N187   2.069       .  S
Cu178       N180   2.069       .  S
Cu178       N186   2.069       .  S
N179        N180   1.323       .  A
N179        C183   1.346       .  A
N180        C181   1.345       .  A
C181        C182   1.380       .  A
C181        H184   1.082       .  S
C182        C183   1.382       .  A
C183        H185   1.082       .  S
N186        N187   1.323       .  A
N186        C190   1.344       .  A
N187        C188   1.345       .  A
C188        C189   1.379       .  A
C188        H191   1.082       .  S
C189        C190   1.379       .  A
C189        C196   1.459       .  S
C190        H192   1.082       .  S
N193        N194   1.322       .  A
N193        C197   1.346       .  A
N193       Cu201   2.076       .  S
N194        C195   1.342       .  A
N194       Cu200   2.057   1_554  S
C195        C196   1.376       .  A
C195        H198   1.082       .  S
C196        C197   1.382       .  A
C197        H199   1.082       .  S
Cu200       N203   2.057       .  S
Cu201       N211   2.077       .  S
Cu202       N204   2.075       .  S
Cu202       N210   2.076       .  S
N203        N204   1.322       .  A
N203        C207   1.342       .  A
N204        C205   1.346       .  A
C205        C206   1.382       .  A
C205        H208   1.082       .  S
C206        C207   1.376       .  A
C206        C237   1.459       .  S
C207        H209   1.082       .  S
N210        N211   1.324   1_556  A
N210        C214   1.345       .  A
N211        C212   1.345       .  A
C212        C213   1.380   1_554  A
C212        H215   1.082       .  S
C213        C214   1.380       .  A
C213        C653   1.479       .  S
C214        H216   1.082       .  S
N217        N218   1.323       .  A
N217        C221   1.345       .  A
N217       Cu225   2.069       .  S
N218        C219   1.346       .  A
N218       Cu224   2.081       .  S
C219        C220   1.382       .  A
C219        H222   1.082       .  S
C220        C221   1.380       .  A
C221        H223   1.082       .  S
Cu224       N227   2.081       .  S
Cu225       N235   2.069       .  S
Cu226       N228   2.068       .  S
Cu226       N234   2.068       .  S
N227        N228   1.323       .  A
N227        C231   1.346       .  A
N228        C229   1.345       .  A
C229        C230   1.379       .  A
C229        H232   1.082       .  S
C230        C231   1.382       .  A
C231        H233   1.082       .  S
N234        N235   1.323       .  A
N234        C238   1.344       .  A
N235        C236   1.344       .  A
C236        C237   1.379       .  A
C236        H239   1.082       .  S
C237        C238   1.379       .  A
C238        H240   1.082       .  S
N241        N242   1.323       .  A
N241        C245   1.345       .  A
N241       Cu249   2.069       .  S
N242        C243   1.346       .  A
N242       Cu248   2.081       .  S
C243        C244   1.382       .  A
C243        H246   1.082       .  S
C244        C245   1.379       .  A
C245        H247   1.083       .  S
Cu248       N251   2.081       .  S
Cu249       N259   2.069       .  S
Cu250       N252   2.069       .  S
Cu250       N258   2.069       .  S
N251        N252   1.323       .  A
N251        C255   1.346       .  A
N252        C253   1.345       .  A
C253        C254   1.380       .  A
C253        H256   1.082       .  S
C254        C255   1.382       .  A
C255        H257   1.082       .  S
N258        N259   1.323       .  A
N258        C262   1.344       .  A
N259        C260   1.344       .  A
C260        C261   1.379       .  A
C260        H263   1.082       .  S
C261        C262   1.379       .  A
C261        C302   1.459       .  S
C262        H264   1.082       .  S
N265        N266   1.323       .  A
N265        C269   1.345       .  A
N265       Cu273   2.068       .  S
N266        C267   1.346       .  A
N266       Cu272   2.081       .  S
C267        C268   1.382       .  A
C267        H270   1.082       .  S
C268        C269   1.380       .  A
C269        H271   1.082       .  S
Cu272       N275   2.081       .  S
Cu273       N283   2.068       .  S
Cu274       N276   2.069       .  S
Cu274       N282   2.069       .  S
N275        N276   1.323       .  A
N275        C279   1.346       .  A
N276        C277   1.345       .  A
C277        C278   1.380       .  A
C277        H280   1.082       .  S
C278        C279   1.382       .  A
C279        H281   1.082       .  S
N282        N283   1.323       .  A
N282        C286   1.344       .  A
N283        C284   1.344       .  A
C284        C285   1.379       .  A
C284        H287   1.082       .  S
C285        C286   1.379       .  A
C285        C292   1.459       .  S
C286        H288   1.082       .  S
N289        N290   1.322       .  A
N289        C293   1.346       .  A
N289       Cu297   2.076       .  S
N290        C291   1.342       .  A
N290       Cu296   2.057   1_554  S
C291        C292   1.376       .  A
C291        H294   1.082       .  S
C292        C293   1.382       .  A
C293        H295   1.082       .  S
Cu296       N299   2.057       .  S
Cu297       N307   2.076       .  S
Cu298       N300   2.076       .  S
Cu298       N306   2.076       .  S
N299        N300   1.322       .  A
N299        C303   1.342       .  A
N300        C301   1.346       .  A
C301        C302   1.382       .  A
C301        H304   1.082       .  S
C302        C303   1.376       .  A
C303        H305   1.082       .  S
N306        N307   1.324   1_556  A
N306        C310   1.345       .  A
N307        C308   1.345       .  A
C308        C309   1.380   1_554  A
C308        H311   1.082       .  S
C309        C310   1.380       .  A
C309        C656   1.479       .  S
C310        H312   1.082       .  S
N313        N314   1.323       .  A
N313        C317   1.345       .  A
N313       Cu321   2.069       .  S
N314        C315   1.346       .  A
N314       Cu320   2.082       .  S
C315        C316   1.382       .  A
C315        H318   1.082       .  S
C316        C317   1.379       .  A
C316        C460   1.465       .  S
C317        H319   1.083       .  S
Cu320       N323   2.082       .  S
Cu321       N331   2.069       .  S
Cu322       N324   2.067       .  S
Cu322       N330   2.067       .  S
N323        N324   1.323       .  A
N323        C327   1.346       .  A
N324        C325   1.345       .  A
C325        C326   1.379       .  A
C325        H328   1.082       .  S
C326        C327   1.382       .  A
C327        H329   1.082       .  S
N330        N331   1.323       .  A
N330        C334   1.344       .  A
N331        C332   1.345       .  A
C332        C333   1.379       .  A
C332        H335   1.082       .  S
C333        C334   1.378       .  A
C333        C340   1.459       .  S
C334        H336   1.082       .  S
N337        N338   1.322       .  A
N337        C341   1.346       .  A
N337       Cu345   2.076       .  S
N338        C339   1.342       .  A
N338       Cu344   2.056   1_545  S
C339        C340   1.376       .  A
C339        H342   1.082       .  S
C340        C341   1.382       .  A
C341        H343   1.082       .  S
Cu344       N347   2.056       .  S
Cu345       N355   2.076       .  S
Cu346       N348   2.076       .  S
Cu346       N354   2.076       .  S
N347        N348   1.322       .  A
N347        C351   1.342       .  A
N348        C349   1.346       .  A
C349        C350   1.382       .  A
C349        H352   1.082       .  S
C350        C351   1.376       .  A
C350        C381   1.459       .  S
C351        H353   1.082       .  S
N354        N355   1.322   1_565  A
N354        C358   1.344       .  A
N355        C356   1.344       .  A
C356        C357   1.387   1_545  A
C356        H359   1.082       .  S
C357        C358   1.387       .  A
C357        C642   1.495       .  S
C358        H360   1.082       .  S
N361        N362   1.323       .  A
N361        C365   1.345       .  A
N361       Cu369   2.067       .  S
N362        C363   1.346       .  A
N362       Cu368   2.082       .  S
C363        C364   1.382       .  A
C363        H366   1.082       .  S
C364        C365   1.379       .  A
C365        H367   1.082       .  S
Cu368       N371   2.082       .  S
Cu369       N379   2.067       .  S
Cu370       N372   2.069       .  S
Cu370       N378   2.069       .  S
N371        N372   1.323       .  A
N371        C375   1.346       .  A
N372        C373   1.345       .  A
C373        C374   1.379       .  A
C373        H376   1.083       .  S
C374        C375   1.382       .  A
C375        H377   1.082       .  S
N378        N379   1.323       .  A
N378        C382   1.345       .  A
N379        C380   1.344       .  A
C380        C381   1.378       .  A
C380        H383   1.082       .  S
C381        C382   1.379       .  A
C382        H384   1.082       .  S
N385        N386   1.323       .  A
N385        C389   1.345       .  A
N385       Cu393   2.067       .  S
N386        C387   1.346       .  A
N386       Cu392   2.081       .  S
C387        C388   1.382       .  A
C387        H390   1.082       .  S
C388        C389   1.380       .  A
C389        H391   1.082       .  S
Cu392       N395   2.081       .  S
Cu393       N403   2.067       .  S
Cu394       N396   2.069       .  S
Cu394       N402   2.069       .  S
N395        N396   1.323       .  A
N395        C399   1.346       .  A
N396        C397   1.345       .  A
C397        C398   1.379       .  A
C397        H400   1.083       .  S
C398        C399   1.382       .  A
C399        H401   1.082       .  S
N402        N403   1.323       .  A
N402        C406   1.345       .  A
N403        C404   1.344       .  A
C404        C405   1.378       .  A
C404        H407   1.082       .  S
C405        C406   1.379       .  A
C405        C436   1.459       .  S
C406        H408   1.082       .  S
N409        N410   1.323       .  A
N409        C413   1.345       .  A
N409       Cu417   2.070       .  S
N410        C411   1.346       .  A
N410       Cu416   2.082       .  S
C411        C412   1.382       .  A
C411        H414   1.082       .  S
C412        C413   1.380       .  A
C413        H415   1.083       .  S
Cu416       N419   2.082       .  S
Cu417       N427   2.069       .  S
Cu418       N420   2.067       .  S
Cu418       N426   2.066       .  S
N419        N420   1.323       .  A
N419        C423   1.346       .  A
N420        C421   1.345       .  A
C421        C422   1.379       .  A
C421        H424   1.082       .  S
C422        C423   1.382       .  A
C423        H425   1.082       .  S
N426        N427   1.323       .  A
N426        C430   1.344       .  A
N427        C428   1.345       .  A
C428        C429   1.379       .  A
C428        H431   1.082       .  S
C429        C430   1.378       .  A
C429        C446   1.459       .  S
C430        H432   1.082       .  S
N433        N434   1.322       .  A
N433        C437   1.346       .  A
N433       Cu441   2.076       .  S
N434        C435   1.342       .  A
N434       Cu440   2.055       .  S
C435        C436   1.376       .  A
C435        H438   1.082       .  S
C436        C437   1.382       .  A
C437        H439   1.082       .  S
Cu440       N443   2.055   1_565  S
Cu441       N451   2.077       .  S
Cu442       N444   2.076       .  S
Cu442       N450   2.076       .  S
N443        N444   1.322       .  A
N443        C447   1.342       .  A
N444        C445   1.346       .  A
C445        C446   1.382       .  A
C445        H448   1.082       .  S
C446        C447   1.376       .  A
C447        H449   1.082       .  S
N450        N451   1.322   1_545  A
N450        C454   1.344       .  A
N451        C452   1.344       .  A
C452        C453   1.387       .  A
C452        H455   1.082       .  S
C453        C454   1.387   1_565  A
C453        C639   1.495       .  S
C454        H456   1.082       .  S
N457        N458   1.323       .  A
N457        C461   1.346       .  A
N457       Cu465   2.075       .  S
N458        C459   1.345       .  A
N458       Cu464   2.074       .  S
C459        C460   1.380       .  A
C459        H462   1.082       .  S
C460        C461   1.381       .  A
C461        H463   1.082       .  S
Cu464       N467   2.074       .  S
Cu465       N475   2.075       .  S
Cu466       N468   2.075       .  S
Cu466       N474   2.075       .  S
N467        N468   1.323       .  A
N467        C471   1.346       .  A
N468        C469   1.345       .  A
C469        C470   1.381       .  A
C469        H472   1.082       .  S
C470        C471   1.381       .  A
C471        H473   1.082       .  S
N474        N475   1.323       .  A
N474        C478   1.346       .  A
N475        C476   1.345       .  A
C476        C477   1.380       .  A
C476        H479   1.082       .  S
C477        C478   1.381       .  A
C477        C508   1.465       .  S
C478        H480   1.082       .  S
N481        N482   1.322       .  A
N481        C485   1.346       .  A
N481       Cu489   2.075       .  S
N482        C483   1.342       .  A
N482       Cu488   2.056       .  S
C483        C484   1.376       .  A
C483        H486   1.082       .  S
C484        C485   1.382       .  A
C484        C549   1.459       .  S
C485        H487   1.082       .  S
Cu488       N491   2.056   1_655  S
Cu489       N499   2.075       .  S
Cu490       N492   2.076       .  S
Cu490       N498   2.076       .  S
N491        N492   1.322       .  A
N491        C495   1.342       .  A
N492        C493   1.346       .  A
C493        C494   1.382       .  A
C493        H496   1.082       .  S
C494        C495   1.376       .  A
C494        C525   1.459       .  S
C495        H497   1.082       .  S
N498        N499   1.323   1_455  A
N498        C502   1.344       .  A
N499        C500   1.344       .  A
C500        C501   1.386       .  A
C500        H503   1.082       .  S
C501        C502   1.386   1_655  A
C501        C625   1.492       .  S
C502        H504   1.082       .  S
N505        N506   1.323       .  A
N505        C509   1.345       .  A
N505       Cu513   2.069       .  S
N506        C507   1.346       .  A
N506       Cu512   2.082       .  S
C507        C508   1.382       .  A
C507        H510   1.082       .  S
C508        C509   1.380       .  A
C509        H511   1.083       .  S
Cu512       N515   2.082       .  S
Cu513       N523   2.069       .  S
Cu514       N516   2.068       .  S
Cu514       N522   2.068       .  S
N515        N516   1.323       .  A
N515        C519   1.346       .  A
N516        C517   1.345       .  A
C517        C518   1.379       .  A
C517        H520   1.082       .  S
C518        C519   1.382       .  A
C519        H521   1.082       .  S
N522        N523   1.323       .  A
N522        C526   1.344       .  A
N523        C524   1.345       .  A
C524        C525   1.379       .  A
C524        H527   1.082       .  S
C525        C526   1.379       .  A
C526        H528   1.082       .  S
N529        N530   1.323       .  A
N529        C533   1.345       .  A
N529       Cu537   2.067       .  S
N530        C531   1.346       .  A
N530       Cu536   2.081       .  S
C531        C532   1.382       .  A
C531        H534   1.082       .  S
C532        C533   1.379       .  A
C533        H535   1.082       .  S
Cu536       N539   2.081       .  S
Cu537       N547   2.067       .  S
Cu538       N540   2.069       .  S
Cu538       N546   2.069       .  S
N539        N540   1.323       .  A
N539        C543   1.346       .  A
N540        C541   1.345       .  A
C541        C542   1.379       .  A
C541        H544   1.082       .  S
C542        C543   1.382       .  A
C543        H545   1.082       .  S
N546        N547   1.323       .  A
N546        C550   1.344       .  A
N547        C548   1.344       .  A
C548        C549   1.378       .  A
C548        H551   1.082       .  S
C549        C550   1.379       .  A
C550        H552   1.082       .  S
N553        N554   1.323       .  A
N553        C557   1.345       .  A
N553       Cu561   2.068       .  S
N554        C555   1.346       .  A
N554       Cu560   2.082       .  S
C555        C556   1.382       .  A
C555        H558   1.082       .  S
C556        C557   1.379       .  A
C557        H559   1.082       .  S
Cu560       N563   2.082       .  S
Cu561       N571   2.068       .  S
Cu562       N564   2.069       .  S
Cu562       N570   2.069       .  S
N563        N564   1.323       .  A
N563        C567   1.346       .  A
N564        C565   1.345       .  A
C565        C566   1.379       .  A
C565        H568   1.083       .  S
C566        C567   1.382       .  A
C567        H569   1.082       .  S
N570        N571   1.323       .  A
N570        C574   1.345       .  A
N571        C572   1.344       .  A
C572        C573   1.379       .  A
C572        H575   1.082       .  S
C573        C574   1.379       .  A
C573        C614   1.459       .  S
C574        H576   1.082       .  S
N577        N578   1.323       .  A
N577        C581   1.345       .  A
N577       Cu585   2.069       .  S
N578        C579   1.346       .  A
N578       Cu584   2.081       .  S
C579        C580   1.382       .  A
C579        H582   1.082       .  S
C580        C581   1.379       .  A
C581        H583   1.082       .  S
Cu584       N587   2.081       .  S
Cu585       N595   2.069       .  S
Cu586       N588   2.067       .  S
Cu586       N594   2.067       .  S
N587        N588   1.323       .  A
N587        C591   1.346       .  A
N588        C589   1.345       .  A
C589        C590   1.379       .  A
C589        H592   1.082       .  S
C590        C591   1.382       .  A
C591        H593   1.082       .  S
N594        N595   1.323       .  A
N594        C598   1.344       .  A
N595        C596   1.345       .  A
C596        C597   1.379       .  A
C596        H599   1.082       .  S
C597        C598   1.378       .  A
C597        C604   1.459       .  S
C598        H600   1.082       .  S
N601        N602   1.322       .  A
N601        C605   1.346       .  A
N601       Cu609   2.075       .  S
N602        C603   1.342       .  A
N602       Cu608   2.056   1_455  S
C603        C604   1.376       .  A
C603        H606   1.082       .  S
C604        C605   1.382       .  A
C605        H607   1.082       .  S
Cu608       N611   2.056       .  S
Cu609       N619   2.075       .  S
Cu610       N612   2.076       .  S
Cu610       N618   2.076       .  S
N611        N612   1.322       .  A
N611        C615   1.342       .  A
N612        C613   1.346       .  A
C613        C614   1.382       .  A
C613        H616   1.082       .  S
C614        C615   1.376       .  A
C615        H617   1.082       .  S
N618        N619   1.323   1_655  A
N618        C622   1.344       .  A
N619        C620   1.344       .  A
C620        C621   1.386   1_455  A
C620        H623   1.082       .  S
C621        C622   1.386       .  A
C621        C628   1.492       .  S
C622        H624   1.082       .  S
C625        C626   1.415       .  A
C625        C630   1.415   1_655  A
C626        C627   1.412   1_545  A
C626        C631   1.452       .  S
C627        C628   1.415       .  A
C627        C634   1.452       .  S
C628        C629   1.416   1_655  A
C629        C630   1.412   1_565  A
C629        C632   1.452       .  S
C630        C633   1.452       .  S
C631        N638   1.157       .  T
C632        N637   1.157       .  T
C633        N635   1.157       .  T
C634        N636   1.157       .  T
C639        C640   1.416   1_565  A
C639        C644   1.416       .  A
C640        C641   1.412   1_556  A
C640        C645   1.452       .  S
C641        C642   1.416   1_545  A
C641        C648   1.452       .  S
C642        C643   1.416       .  A
C643        C644   1.412   1_554  A
C643        C646   1.452       .  S
C644        C647   1.452       .  S
C645        N652   1.157       .  T
C646        N651   1.157       .  T
C647        N649   1.157       .  T
C648        N650   1.157       .  T
C653        C654   1.411   1_556  A
C653        C658   1.411       .  A
C654        C655   1.410   1_455  A
C654        C659   1.451       .  S
C655        C656   1.411   1_554  A
C655        C662   1.451       .  S
C656        C657   1.411       .  A
C657        C658   1.410   1_655  A
C657        C660   1.451       .  S
C658        C661   1.451       .  S
C659        N666   1.157       .  T
C660        N665   1.157       .  T
C661        N663   1.157       .  T
C662        N664   1.157       .  T
