geometry optimzed in LAMMPS
_audit_creation_date              2020-11-30 
_audit_creation_method            'lammps2cif' 
_symmetry_space_group_name_H-M    'P1' 
_symmetry_Int_Tables_number       1 
_symmetry_cell_setting            triclinic 
loop_ 
_symmetry_equiv_pos_as_xyz 
  x,y,z 
_cell_length_a                    29.435895599875522 
_cell_length_b                    29.43590544347445 
_cell_length_c                    17.148240611173023 
_cell_angle_alpha                 90.00103516872775 
_cell_angle_beta                  89.99968268297863 
_cell_angle_gamma                 120.00018652907926 
loop_ 
_atom_site_label 
_atom_site_type_symbol 
_atom_site_fract_x 
_atom_site_fract_y 
_atom_site_fract_z 
_atom_site_charge 
O1          O  0.17320775  0.17019980  0.16810684    -0.85100
O2          O  0.07980114  0.07679361  0.16810790    -0.82150
C3          C  0.05745338  0.02873237  0.15170403     0.98360
O4          O  0.07980127  0.00301922  0.16810690    -0.82180
O5          O  0.17320789  0.00301864  0.16810807    -0.84830
C6          C  0.22126912  0.02873216  0.15170481     1.02890
O7          O  0.24698229  0.07679384  0.16810663    -0.77590
O8          O  0.24698281  0.17020092  0.16810857    -0.77780
C9          C  0.22126905  0.19254784  0.15170367     1.02840
O10         O  0.17320832  0.17020150  0.33189255    -0.85100
O11         O  0.07980185  0.07679503  0.33189318    -0.82160
C12         C  0.05745382  0.02873392  0.34829615     0.98380
O13         O  0.07980125  0.00302026  0.33189209    -0.82190
O14         O  0.17320791  0.00301999  0.33189206    -0.84800
C15         C  0.22126935  0.02873358  0.34829498     1.02850
O16         O  0.24698293  0.07679448  0.33189093    -0.77610
O17         O  0.24698271  0.17020124  0.33189363    -0.77760
C18         C  0.22126953  0.19254946  0.34829603     1.02820
Cr19       Cr  0.13111066  0.11889164  0.25000014     1.93740
Cr20       Cr  0.13111033  0.01223114  0.24999975     1.93210
Cr21       Cr  0.23777106  0.11889181  0.24999994     1.39100
O22         O  0.16666404  0.08333816  0.24999994    -1.22850
C23         C  0.24999701  0.00000403  0.12064017    -0.02240
C24         C  0.24999747  0.00000602  0.37935972    -0.02240
C25         C  0.24999701  0.00000641  0.46484491    -0.13030
C26         C  0.24999672  0.00000483  0.03515498    -0.14580
O27         O  0.17320774  0.17019975  0.66810675    -0.85100
O28         O  0.07980113  0.07679358  0.66810792    -0.82150
C29         C  0.05745340  0.02873236  0.65170402     0.98360
O30         O  0.07980131  0.00301922  0.66810686    -0.82180
O31         O  0.17320792  0.00301862  0.66810818    -0.84830
C32         C  0.22126912  0.02873216  0.65170480     1.02890
O33         O  0.24698228  0.07679386  0.66810652    -0.77590
O34         O  0.24698283  0.17020096  0.66810865    -0.77780
C35         C  0.22126904  0.19254783  0.65170367     1.02840
O36         O  0.17320833  0.17020152  0.83189246    -0.85100
O37         O  0.07980186  0.07679504  0.83189320    -0.82160
C38         C  0.05745381  0.02873392  0.84829615     0.98380
O39         O  0.07980122  0.00302024  0.83189205    -0.82190
O40         O  0.17320788  0.00302000  0.83189217    -0.84800
C41         C  0.22126934  0.02873356  0.84829498     1.02850
O42         O  0.24698294  0.07679444  0.83189083    -0.77610
O43         O  0.24698268  0.17020118  0.83189371    -0.77760
C44         C  0.22126952  0.19254945  0.84829603     1.02820
Cr45       Cr  0.13111066  0.11889162  0.75000012     1.93740
Cr46       Cr  0.13111033  0.01223113  0.74999978     1.93210
Cr47       Cr  0.23777106  0.11889180  0.74999994     1.39100
O48         O  0.16666404  0.08333815  0.74999994    -1.22850
C49         C  0.24999702  0.00000403  0.62064016    -0.02240
C50         C  0.24999746  0.00000601  0.87935972    -0.02240
C51         C  0.24999700  0.00000639  0.96484492    -0.13030
C52         C  0.24999673  0.00000484  0.53515497    -0.14580
O53         O  0.17320775  0.42019979  0.16810685    -0.85100
O54         O  0.07980113  0.32679360  0.16810796    -0.82150
C55         C  0.05745340  0.27873237  0.15170402     0.98360
O56         O  0.07980132  0.25301923  0.16810683    -0.82180
O57         O  0.17320792  0.25301865  0.16810809    -0.84830
C58         C  0.22126914  0.27873217  0.15170481     1.02890
O59         O  0.24698231  0.32679385  0.16810662    -0.77590
O60         O  0.24698281  0.42020093  0.16810859    -0.77780
C61         C  0.22126904  0.44254783  0.15170369     1.02840
O62         O  0.17320833  0.42020150  0.33189257    -0.85100
O63         O  0.07980187  0.32679503  0.33189324    -0.82160
C64         C  0.05745382  0.27873391  0.34829615     0.98380
O65         O  0.07980122  0.25302023  0.33189202    -0.82190
O66         O  0.17320790  0.25301999  0.33189209    -0.84800
C67         C  0.22126934  0.27873358  0.34829498     1.02850
O68         O  0.24698293  0.32679447  0.33189092    -0.77610
O69         O  0.24698271  0.42020122  0.33189365    -0.77760
C70         C  0.22126954  0.44254945  0.34829605     1.02820
Cr71       Cr  0.13111067  0.36889163  0.25000017     1.93740
Cr72       Cr  0.13111034  0.26223114  0.24999973     1.93210
Cr73       Cr  0.23777107  0.36889181  0.24999995     1.39100
O74         O  0.16666405  0.33333816  0.24999995    -1.22850
C75         C  0.24999703  0.25000403  0.12064016    -0.02240
C76         C  0.24999746  0.25000602  0.37935972    -0.02240
C77         C  0.24999701  0.25000640  0.46484491    -0.13030
C78         C  0.24999673  0.25000484  0.03515497    -0.14580
O79         O  0.17320772  0.42019976  0.66810680    -0.85100
O80         O  0.07980110  0.32679357  0.66810800    -0.82150
C81         C  0.05745339  0.27873235  0.65170403     0.98360
O82         O  0.07980134  0.25301922  0.66810679    -0.82180
O83         O  0.17320793  0.25301859  0.66810824    -0.84830
C84         C  0.22126912  0.27873215  0.65170480     1.02890
O85         O  0.24698226  0.32679386  0.66810644    -0.77590
O86         O  0.24698280  0.42020094  0.66810860    -0.77780
C87         C  0.22126902  0.44254783  0.65170367     1.02840
O88         O  0.17320834  0.42020151  0.83189251    -0.85100
O89         O  0.07980188  0.32679504  0.83189328    -0.82160
C90         C  0.05745380  0.27873391  0.84829615     0.98380
O91         O  0.07980118  0.25302022  0.83189198    -0.82190
O92         O  0.17320786  0.25302001  0.83189223    -0.84800
C93         C  0.22126933  0.27873356  0.84829497     1.02850
O94         O  0.24698296  0.32679443  0.83189074    -0.77610
O95         O  0.24698271  0.42020120  0.83189365    -0.77760
C96         C  0.22126955  0.44254945  0.84829602     1.02820
Cr97       Cr  0.13111066  0.36889162  0.75000016     1.93740
Cr98       Cr  0.13111033  0.26223112  0.74999977     1.93210
Cr99       Cr  0.23777105  0.36889180  0.74999988     1.39100
O100        O  0.16666404  0.33333814  0.74999994    -1.22850
C101        C  0.24999702  0.25000402  0.62064016    -0.02240
C102        C  0.24999746  0.25000601  0.87935972    -0.02240
C103        C  0.24999700  0.25000639  0.96484491    -0.13030
C104        C  0.24999673  0.25000483  0.53515497    -0.14580
O105        O  0.17320774  0.67019975  0.16810677    -0.85100
O106        O  0.07980113  0.57679358  0.16810795    -0.82150
C107        C  0.05745339  0.52873236  0.15170403     0.98360
O108        O  0.07980131  0.50301921  0.16810685    -0.82180
O109        O  0.17320791  0.50301863  0.16810813    -0.84830
C110        C  0.22126913  0.52873216  0.15170480     1.02890
O111        O  0.24698229  0.57679386  0.16810657    -0.77590
O112        O  0.24698283  0.67020095  0.16810865    -0.77780
C113        C  0.22126904  0.69254783  0.15170368     1.02840
O114        O  0.17320834  0.67020153  0.33189248    -0.85100
O115        O  0.07980187  0.57679504  0.33189323    -0.82160
C116        C  0.05745383  0.52873392  0.34829616     0.98380
O117        O  0.07980123  0.50302025  0.33189205    -0.82190
O118        O  0.17320789  0.50301999  0.33189212    -0.84800
C119        C  0.22126935  0.52873357  0.34829498     1.02850
O120        O  0.24698295  0.57679445  0.33189087    -0.77610
O121        O  0.24698269  0.67020120  0.33189371    -0.77760
C122        C  0.22126953  0.69254946  0.34829603     1.02820
Cr123      Cr  0.13111067  0.61889163  0.25000014     1.93740
Cr124      Cr  0.13111034  0.51223113  0.24999976     1.93210
Cr125      Cr  0.23777106  0.61889180  0.24999995     1.39100
O126        O  0.16666405  0.58333815  0.24999995    -1.22850
C127        C  0.24999702  0.50000402  0.12064017    -0.02240
C128        C  0.24999747  0.50000601  0.37935973    -0.02240
C129        C  0.24999701  0.50000640  0.46484492    -0.13030
C130        C  0.24999673  0.50000482  0.03515497    -0.14580
O131        O  0.17320775  0.67019978  0.66810682    -0.85100
O132        O  0.07980114  0.57679359  0.66810791    -0.82150
C133        C  0.05745339  0.52873236  0.65170403     0.98360
O134        O  0.07980129  0.50301921  0.66810689    -0.82180
O135        O  0.17320791  0.50301863  0.66810813    -0.84830
C136        C  0.22126912  0.52873216  0.65170481     1.02890
O137        O  0.24698229  0.57679385  0.66810657    -0.77590
O138        O  0.24698281  0.67020093  0.66810857    -0.77780
C139        C  0.22126905  0.69254783  0.65170367     1.02840
O140        O  0.17320833  0.67020150  0.83189253    -0.85100
O141        O  0.07980186  0.57679503  0.83189319    -0.82160
C142        C  0.05745383  0.52873391  0.84829616     0.98380
O143        O  0.07980124  0.50302024  0.83189208    -0.82190
O144        O  0.17320790  0.50302000  0.83189212    -0.84800
C145        C  0.22126935  0.52873357  0.84829498     1.02850
O146        O  0.24698295  0.57679446  0.83189087    -0.77610
O147        O  0.24698271  0.67020123  0.83189363    -0.77760
C148        C  0.22126954  0.69254946  0.84829602     1.02820
Cr149      Cr  0.13111067  0.61889163  0.75000014     1.93740
Cr150      Cr  0.13111034  0.51223113  0.74999977     1.93210
Cr151      Cr  0.23777107  0.61889181  0.74999992     1.39100
O152        O  0.16666405  0.58333815  0.74999994    -1.22850
C153        C  0.24999701  0.50000402  0.62064017    -0.02240
C154        C  0.24999747  0.50000601  0.87935972    -0.02240
C155        C  0.24999701  0.50000639  0.96484491    -0.13030
C156        C  0.24999673  0.50000484  0.53515498    -0.14580
O157        O  0.17320772  0.92019978  0.16810681    -0.85100
O158        O  0.07980110  0.82679357  0.16810800    -0.82150
C159        C  0.05745339  0.77873235  0.15170403     0.98360
O160        O  0.07980133  0.75301922  0.16810680    -0.82180
O161        O  0.17320793  0.75301860  0.16810822    -0.84830
C162        C  0.22126912  0.77873216  0.15170481     1.02890
O163        O  0.24698227  0.82679386  0.16810647    -0.77590
O164        O  0.24698280  0.92020095  0.16810861    -0.77780
C165        C  0.22126902  0.94254784  0.15170368     1.02840
O166        O  0.17320834  0.92020151  0.33189252    -0.85100
O167        O  0.07980188  0.82679505  0.33189328    -0.82160
C168        C  0.05745381  0.77873391  0.34829615     0.98380
O169        O  0.07980119  0.75302023  0.33189199    -0.82190
O170        O  0.17320787  0.75302002  0.33189222    -0.84800
C171        C  0.22126934  0.77873357  0.34829498     1.02850
O172        O  0.24698296  0.82679445  0.33189077    -0.77610
O173        O  0.24698271  0.92020121  0.33189366    -0.77760
C174        C  0.22126954  0.94254946  0.34829603     1.02820
Cr175      Cr  0.13111066  0.86889163  0.25000017     1.93740
Cr176      Cr  0.13111034  0.76223113  0.24999977     1.93210
Cr177      Cr  0.23777106  0.86889181  0.24999990     1.39100
O178        O  0.16666404  0.83333815  0.24999995    -1.22850
C179        C  0.24999702  0.75000402  0.12064017    -0.02240
C180        C  0.24999746  0.75000602  0.37935972    -0.02240
C181        C  0.24999701  0.75000640  0.46484491    -0.13030
C182        C  0.24999673  0.75000483  0.03515498    -0.14580
O183        O  0.17320774  0.92019977  0.66810678    -0.85100
O184        O  0.07980115  0.82679359  0.66810789    -0.82150
C185        C  0.05745340  0.77873236  0.65170403     0.98360
O186        O  0.07980129  0.75301921  0.66810691    -0.82180
O187        O  0.17320792  0.75301862  0.66810816    -0.84830
C188        C  0.22126912  0.77873216  0.65170480     1.02890
O189        O  0.24698228  0.82679386  0.66810652    -0.77590
O190        O  0.24698282  0.92020095  0.66810860    -0.77780
C191        C  0.22126904  0.94254784  0.65170366     1.02840
O192        O  0.17320833  0.92020151  0.83189250    -0.85100
O193        O  0.07980186  0.82679503  0.83189317    -0.82160
C194        C  0.05745383  0.77873392  0.84829616     0.98380
O195        O  0.07980125  0.75302026  0.83189210    -0.82190
O196        O  0.17320790  0.75302001  0.83189215    -0.84800
C197        C  0.22126935  0.77873358  0.84829498     1.02850
O198        O  0.24698296  0.82679446  0.83189082    -0.77610
O199        O  0.24698270  0.92020121  0.83189366    -0.77760
C200        C  0.22126953  0.94254945  0.84829602     1.02820
Cr201      Cr  0.13111067  0.86889163  0.75000011     1.93740
Cr202      Cr  0.13111034  0.76223113  0.74999979     1.93210
Cr203      Cr  0.23777107  0.86889181  0.74999991     1.39100
O204        O  0.16666405  0.83333816  0.74999994    -1.22850
C205        C  0.24999702  0.75000403  0.62064017    -0.02240
C206        C  0.24999747  0.75000602  0.87935972    -0.02240
C207        C  0.24999701  0.75000640  0.96484492    -0.13030
C208        C  0.24999674  0.75000484  0.53515497    -0.14580
O209        O  0.42320776  0.17019980  0.16810683    -0.85100
O210        O  0.32980114  0.07679360  0.16810790    -0.82150
C211        C  0.30745339  0.02873237  0.15170403     0.98360
O212        O  0.32980129  0.00301921  0.16810689    -0.82180
O213        O  0.42320791  0.00301863  0.16810813    -0.84830
C214        C  0.47126912  0.02873216  0.15170481     1.02890
O215        O  0.49698229  0.07679385  0.16810659    -0.77590
O216        O  0.49698282  0.17020094  0.16810859    -0.77780
C217        C  0.47126905  0.19254784  0.15170368     1.02840
O218        O  0.42320833  0.17020150  0.33189255    -0.85100
O219        O  0.32980185  0.07679503  0.33189318    -0.82160
C220        C  0.30745382  0.02873392  0.34829615     0.98380
O221        O  0.32980124  0.00302026  0.33189208    -0.82190
O222        O  0.42320790  0.00302000  0.33189212    -0.84800
C223        C  0.47126935  0.02873358  0.34829498     1.02850
O224        O  0.49698294  0.07679447  0.33189089    -0.77610
O225        O  0.49698271  0.17020122  0.33189364    -0.77760
C226        C  0.47126954  0.19254946  0.34829603     1.02820
Cr227      Cr  0.38111067  0.11889163  0.25000014     1.93740
Cr228      Cr  0.38111034  0.01223113  0.24999977     1.93210
Cr229      Cr  0.48777107  0.11889181  0.24999993     1.39100
O230        O  0.41666405  0.08333816  0.24999995    -1.22850
C231        C  0.49999701  0.00000402  0.12064017    -0.02240
C232        C  0.49999748  0.00000602  0.37935972    -0.02240
C233        C  0.49999701  0.00000640  0.46484491    -0.13030
C234        C  0.49999672  0.00000483  0.03515497    -0.14580
O235        O  0.42320774  0.17019977  0.66810680    -0.85100
O236        O  0.32980113  0.07679359  0.66810792    -0.82150
C237        C  0.30745339  0.02873237  0.65170402     0.98360
O238        O  0.32980130  0.00301922  0.66810686    -0.82180
O239        O  0.42320791  0.00301862  0.66810814    -0.84830
C240        C  0.47126912  0.02873216  0.65170480     1.02890
O241        O  0.49698228  0.07679385  0.66810655    -0.77590
O242        O  0.49698281  0.17020093  0.66810859    -0.77780
C243        C  0.47126904  0.19254783  0.65170366     1.02840
O244        O  0.42320832  0.17020150  0.83189252    -0.85100
O245        O  0.32980186  0.07679503  0.83189320    -0.82160
C246        C  0.30745382  0.02873391  0.84829615     0.98380
O247        O  0.32980123  0.00302024  0.83189206    -0.82190
O248        O  0.42320789  0.00302000  0.83189214    -0.84800
C249        C  0.47126934  0.02873357  0.84829498     1.02850
O250        O  0.49698294  0.07679446  0.83189085    -0.77610
O251        O  0.49698269  0.17020121  0.83189365    -0.77760
C252        C  0.47126953  0.19254945  0.84829602     1.02820
Cr253      Cr  0.38111066  0.11889163  0.75000013     1.93740
Cr254      Cr  0.38111033  0.01223113  0.74999976     1.93210
Cr255      Cr  0.48777106  0.11889180  0.74999992     1.39100
O256        O  0.41666404  0.08333815  0.74999994    -1.22850
C257        C  0.49999701  0.00000403  0.62064016    -0.02240
C258        C  0.49999746  0.00000601  0.87935972    -0.02240
C259        C  0.49999700  0.00000640  0.96484491    -0.13030
C260        C  0.49999673  0.00000483  0.53515497    -0.14580
O261        O  0.42320777  0.42019980  0.16810686    -0.85100
O262        O  0.32980116  0.32679361  0.16810787    -0.82150
C263        C  0.30745340  0.27873237  0.15170402     0.98360
O264        O  0.32980128  0.25301921  0.16810691    -0.82180
O265        O  0.42320791  0.25301864  0.16810808    -0.84830
C266        C  0.47126913  0.27873217  0.15170481     1.02890
O267        O  0.49698231  0.32679384  0.16810664    -0.77590
O268        O  0.49698282  0.42020092  0.16810858    -0.77780
C269        C  0.47126905  0.44254784  0.15170368     1.02840
O270        O  0.42320831  0.42020148  0.33189257    -0.85100
O271        O  0.32980184  0.32679502  0.33189316    -0.82160
C272        C  0.30745382  0.27873391  0.34829615     0.98380
O273        O  0.32980125  0.25302025  0.33189210    -0.82190
O274        O  0.42320791  0.25301999  0.33189207    -0.84800
C275        C  0.47126935  0.27873358  0.34829499     1.02850
O276        O  0.49698294  0.32679448  0.33189094    -0.77610
O277        O  0.49698270  0.42020123  0.33189364    -0.77760
C278        C  0.47126953  0.44254945  0.34829604     1.02820
Cr279      Cr  0.38111067  0.36889163  0.25000014     1.93740
Cr280      Cr  0.38111034  0.26223113  0.24999976     1.93210
Cr281      Cr  0.48777107  0.36889181  0.24999995     1.39100
O282        O  0.41666405  0.33333815  0.24999995    -1.22850
C283        C  0.49999702  0.25000403  0.12064017    -0.02240
C284        C  0.49999747  0.25000601  0.37935972    -0.02240
C285        C  0.49999702  0.25000640  0.46484491    -0.13030
C286        C  0.49999673  0.25000483  0.03515497    -0.14580
O287        O  0.42320773  0.42019976  0.66810680    -0.85100
O288        O  0.32980109  0.32679357  0.66810802    -0.82150
C289        C  0.30745339  0.27873236  0.65170403     0.98360
O290        O  0.32980133  0.25301923  0.66810678    -0.82180
O291        O  0.42320793  0.25301862  0.66810816    -0.84830
C292        C  0.47126913  0.27873216  0.65170480     1.02890
O293        O  0.49698228  0.32679386  0.66810652    -0.77590
O294        O  0.49698281  0.42020094  0.66810861    -0.77780
C295        C  0.47126903  0.44254783  0.65170367     1.02840
O296        O  0.42320834  0.42020151  0.83189251    -0.85100
O297        O  0.32980189  0.32679504  0.83189330    -0.82160
C298        C  0.30745381  0.27873390  0.84829615     0.98380
O299        O  0.32980119  0.25302022  0.83189197    -0.82190
O300        O  0.42320787  0.25301999  0.83189215    -0.84800
C301        C  0.47126933  0.27873356  0.84829497     1.02850
O302        O  0.49698294  0.32679444  0.83189082    -0.77610
O303        O  0.49698271  0.42020120  0.83189367    -0.77760
C304        C  0.47126955  0.44254945  0.84829603     1.02820
Cr305      Cr  0.38111067  0.36889162  0.75000017     1.93740
Cr306      Cr  0.38111033  0.26223112  0.74999974     1.93210
Cr307      Cr  0.48777106  0.36889180  0.74999992     1.39100
O308        O  0.41666404  0.33333815  0.74999994    -1.22850
C309        C  0.49999702  0.25000402  0.62064016    -0.02240
C310        C  0.49999745  0.25000600  0.87935972    -0.02240
C311        C  0.49999700  0.25000639  0.96484491    -0.13030
C312        C  0.49999674  0.25000483  0.53515497    -0.14580
O313        O  0.42320773  0.67019976  0.16810680    -0.85100
O314        O  0.32980111  0.57679357  0.16810799    -0.82150
C315        C  0.30745339  0.52873236  0.15170403     0.98360
O316        O  0.32980132  0.50301922  0.16810681    -0.82180
O317        O  0.42320792  0.50301863  0.16810811    -0.84830
C318        C  0.47126913  0.52873216  0.15170480     1.02890
O319        O  0.49698230  0.57679385  0.16810658    -0.77590
O320        O  0.49698281  0.67020093  0.16810861    -0.77780
C321        C  0.47126903  0.69254782  0.15170367     1.02840
O322        O  0.42320833  0.67020152  0.33189251    -0.85100
O323        O  0.32980189  0.57679504  0.33189327    -0.82160
C324        C  0.30745382  0.52873391  0.34829616     0.98380
O325        O  0.32980121  0.50302023  0.33189201    -0.82190
O326        O  0.42320789  0.50301999  0.33189211    -0.84800
C327        C  0.47126934  0.52873357  0.34829498     1.02850
O328        O  0.49698294  0.57679446  0.33189088    -0.77610
O329        O  0.49698270  0.67020121  0.33189367    -0.77760
C330        C  0.47126954  0.69254946  0.34829603     1.02820
Cr331      Cr  0.38111067  0.61889162  0.25000016     1.93740
Cr332      Cr  0.38111034  0.51223113  0.24999974     1.93210
Cr333      Cr  0.48777106  0.61889180  0.24999994     1.39100
O334        O  0.41666404  0.58333815  0.24999995    -1.22850
C335        C  0.49999703  0.50000403  0.12064017    -0.02240
C336        C  0.49999746  0.50000601  0.37935973    -0.02240
C337        C  0.49999700  0.50000640  0.46484492    -0.13030
C338        C  0.49999674  0.50000483  0.03515497    -0.14580
O339        O  0.42320776  0.67019979  0.66810682    -0.85100
O340        O  0.32980115  0.57679360  0.66810787    -0.82150
C341        C  0.30745339  0.52873236  0.65170403     0.98360
O342        O  0.32980128  0.50301920  0.66810691    -0.82180
O343        O  0.42320790  0.50301862  0.66810811    -0.84830
C344        C  0.47126912  0.52873215  0.65170480     1.02890
O345        O  0.49698229  0.57679384  0.66810658    -0.77590
O346        O  0.49698282  0.67020093  0.66810856    -0.77780
C347        C  0.47126905  0.69254784  0.65170366     1.02840
O348        O  0.42320832  0.67020150  0.83189253    -0.85100
O349        O  0.32980185  0.57679502  0.83189316    -0.82160
C350        C  0.30745383  0.52873391  0.84829615     0.98380
O351        O  0.32980125  0.50302025  0.83189210    -0.82190
O352        O  0.42320791  0.50302000  0.83189210    -0.84800
C353        C  0.47126935  0.52873358  0.84829498     1.02850
O354        O  0.49698294  0.57679447  0.83189088    -0.77610
O355        O  0.49698270  0.67020123  0.83189362    -0.77760
C356        C  0.47126953  0.69254946  0.84829601     1.02820
Cr357      Cr  0.38111067  0.61889163  0.75000012     1.93740
Cr358      Cr  0.38111034  0.51223113  0.74999977     1.93210
Cr359      Cr  0.48777106  0.61889181  0.74999992     1.39100
O360        O  0.41666405  0.58333815  0.74999994    -1.22850
C361        C  0.49999701  0.50000402  0.62064017    -0.02240
C362        C  0.49999747  0.50000601  0.87935972    -0.02240
C363        C  0.49999702  0.50000640  0.96484491    -0.13030
C364        C  0.49999672  0.50000483  0.53515498    -0.14580
O365        O  0.42320773  0.92019976  0.16810680    -0.85100
O366        O  0.32980109  0.82679357  0.16810803    -0.82150
C367        C  0.30745339  0.77873236  0.15170404     0.98360
O368        O  0.32980133  0.75301923  0.16810679    -0.82180
O369        O  0.42320792  0.75301861  0.16810816    -0.84830
C370        C  0.47126913  0.77873215  0.15170480     1.02890
O371        O  0.49698228  0.82679385  0.16810654    -0.77590
O372        O  0.49698280  0.92020094  0.16810859    -0.77780
C373        C  0.47126903  0.94254783  0.15170367     1.02840
O374        O  0.42320835  0.92020152  0.33189251    -0.85100
O375        O  0.32980190  0.82679505  0.33189331    -0.82160
C376        C  0.30745382  0.77873391  0.34829616     0.98380
O377        O  0.32980120  0.75302023  0.33189198    -0.82190
O378        O  0.42320788  0.75302000  0.33189215    -0.84800
C379        C  0.47126934  0.77873357  0.34829498     1.02850
O380        O  0.49698295  0.82679445  0.33189084    -0.77610
O381        O  0.49698272  0.92020122  0.33189365    -0.77760
C382        C  0.47126955  0.94254946  0.34829602     1.02820
Cr383      Cr  0.38111067  0.86889163  0.25000017     1.93740
Cr384      Cr  0.38111034  0.76223113  0.24999975     1.93210
Cr385      Cr  0.48777106  0.86889180  0.24999992     1.39100
O386        O  0.41666405  0.83333815  0.24999995    -1.22850
C387        C  0.49999702  0.75000402  0.12064017    -0.02240
C388        C  0.49999746  0.75000601  0.37935972    -0.02240
C389        C  0.49999701  0.75000640  0.46484492    -0.13030
C390        C  0.49999673  0.75000482  0.03515497    -0.14580
O391        O  0.42320773  0.92019977  0.66810677    -0.85100
O392        O  0.32980111  0.82679358  0.66810796    -0.82150
C393        C  0.30745339  0.77873236  0.65170403     0.98360
O394        O  0.32980132  0.75301922  0.66810684    -0.82180
O395        O  0.42320793  0.75301862  0.66810819    -0.84830
C396        C  0.47126913  0.77873217  0.65170480     1.02890
O397        O  0.49698228  0.82679388  0.66810648    -0.77590
O398        O  0.49698281  0.92020096  0.66810863    -0.77780
C399        C  0.47126903  0.94254784  0.65170367     1.02840
O400        O  0.42320834  0.92020152  0.83189248    -0.85100
O401        O  0.32980188  0.82679505  0.83189325    -0.82160
C402        C  0.30745383  0.77873392  0.84829616     0.98380
O403        O  0.32980122  0.75302025  0.83189203    -0.82190
O404        O  0.42320788  0.75302001  0.83189219    -0.84800
C405        C  0.47126935  0.77873357  0.84829497     1.02850
O406        O  0.49698296  0.82679445  0.83189078    -0.77610
O407        O  0.49698270  0.92020120  0.83189369    -0.77760
C408        C  0.47126954  0.94254946  0.84829603     1.02820
Cr409      Cr  0.38111067  0.86889163  0.75000014     1.93740
Cr410      Cr  0.38111034  0.76223114  0.74999978     1.93210
Cr411      Cr  0.48777106  0.86889181  0.74999991     1.39100
O412        O  0.41666405  0.83333816  0.74999994    -1.22850
C413        C  0.49999703  0.75000403  0.62064016    -0.02240
C414        C  0.49999746  0.75000602  0.87935972    -0.02240
C415        C  0.49999700  0.75000639  0.96484491    -0.13030
C416        C  0.49999674  0.75000484  0.53515497    -0.14580
O417        O  0.67320776  0.17019980  0.16810682    -0.85100
O418        O  0.57980115  0.07679360  0.16810788    -0.82150
C419        C  0.55745339  0.02873236  0.15170403     0.98360
O420        O  0.57980128  0.00301921  0.16810690    -0.82180
O421        O  0.67320790  0.00301864  0.16810809    -0.84830
C422        C  0.72126912  0.02873216  0.15170481     1.02890
O423        O  0.74698230  0.07679385  0.16810663    -0.77590
O424        O  0.74698282  0.17020094  0.16810861    -0.77780
C425        C  0.72126905  0.19254784  0.15170368     1.02840
O426        O  0.67320832  0.17020150  0.33189253    -0.85100
O427        O  0.57980185  0.07679503  0.33189316    -0.82160
C428        C  0.55745383  0.02873392  0.34829615     0.98380
O429        O  0.57980125  0.00302026  0.33189209    -0.82190
O430        O  0.67320790  0.00301999  0.33189208    -0.84800
C431        C  0.72126934  0.02873358  0.34829499     1.02850
O432        O  0.74698293  0.07679448  0.33189093    -0.77610
O433        O  0.74698270  0.17020123  0.33189366    -0.77760
C434        C  0.72126953  0.19254946  0.34829603     1.02820
Cr435      Cr  0.63111067  0.11889163  0.25000012     1.93740
Cr436      Cr  0.63111034  0.01223114  0.24999976     1.93210
Cr437      Cr  0.73777106  0.11889181  0.24999996     1.39100
O438        O  0.66666405  0.08333816  0.24999995    -1.22850
C439        C  0.74999701  0.00000403  0.12064017    -0.02240
C440        C  0.74999747  0.00000602  0.37935972    -0.02240
C441        C  0.74999701  0.00000640  0.46484491    -0.13030
C442        C  0.74999673  0.00000483  0.03515498    -0.14580
O443        O  0.67320774  0.17019976  0.66810678    -0.85100
O444        O  0.57980113  0.07679358  0.66810793    -0.82150
C445        C  0.55745339  0.02873236  0.65170402     0.98360
O446        O  0.57980131  0.00301921  0.66810685    -0.82180
O447        O  0.67320792  0.00301861  0.66810818    -0.84830
C448        C  0.72126912  0.02873216  0.65170480     1.02890
O449        O  0.74698228  0.07679386  0.66810651    -0.77590
O450        O  0.74698282  0.17020095  0.66810861    -0.77780
C451        C  0.72126904  0.19254783  0.65170367     1.02840
O452        O  0.67320833  0.17020150  0.83189250    -0.85100
O453        O  0.57980186  0.07679503  0.83189321    -0.82160
C454        C  0.55745382  0.02873391  0.84829615     0.98380
O455        O  0.57980122  0.00302024  0.83189205    -0.82190
O456        O  0.67320788  0.00302000  0.83189218    -0.84800
C457        C  0.72126934  0.02873357  0.84829498     1.02850
O458        O  0.74698295  0.07679444  0.83189081    -0.77610
O459        O  0.74698270  0.17020119  0.83189367    -0.77760
C460        C  0.72126953  0.19254944  0.84829603     1.02820
Cr461      Cr  0.63111067  0.11889162  0.75000013     1.93740
Cr462      Cr  0.63111033  0.01223113  0.74999978     1.93210
Cr463      Cr  0.73777106  0.11889180  0.74999991     1.39100
O464        O  0.66666404  0.08333815  0.74999994    -1.22850
C465        C  0.74999702  0.00000402  0.62064016    -0.02240
C466        C  0.74999747  0.00000601  0.87935972    -0.02240
C467        C  0.74999701  0.00000639  0.96484492    -0.13030
C468        C  0.74999673  0.00000483  0.53515497    -0.14580
O469        O  0.67320777  0.42019980  0.16810688    -0.85100
O470        O  0.57980116  0.32679361  0.16810789    -0.82150
C471        C  0.55745340  0.27873238  0.15170402     0.98360
O472        O  0.57980130  0.25301922  0.16810687    -0.82180
O473        O  0.67320791  0.25301865  0.16810806    -0.84830
C474        C  0.72126914  0.27873216  0.15170481     1.02890
O475        O  0.74698231  0.32679384  0.16810665    -0.77590
O476        O  0.74698281  0.42020091  0.16810854    -0.77780
C477        C  0.72126905  0.44254783  0.15170367     1.02840
O478        O  0.67320831  0.42020148  0.33189259    -0.85100
O479        O  0.57980185  0.32679502  0.33189317    -0.82160
C480        C  0.55745382  0.27873391  0.34829615     0.98380
O481        O  0.57980125  0.25302025  0.33189207    -0.82190
O482        O  0.67320791  0.25302000  0.33189206    -0.84800
C483        C  0.72126934  0.27873358  0.34829499     1.02850
O484        O  0.74698293  0.32679449  0.33189095    -0.77610
O485        O  0.74698271  0.42020125  0.33189360    -0.77760
C486        C  0.72126953  0.44254946  0.34829604     1.02820
Cr487      Cr  0.63111067  0.36889163  0.25000015     1.93740
Cr488      Cr  0.63111034  0.26223114  0.24999974     1.93210
Cr489      Cr  0.73777107  0.36889181  0.24999994     1.39100
O490        O  0.66666405  0.33333816  0.24999994    -1.22850
C491        C  0.74999703  0.25000403  0.12064017    -0.02240
C492        C  0.74999746  0.25000602  0.37935972    -0.02240
C493        C  0.74999701  0.25000640  0.46484491    -0.13030
C494        C  0.74999673  0.25000483  0.03515497    -0.14580
O495        O  0.67320774  0.42019977  0.66810680    -0.85100
O496        O  0.57980113  0.32679358  0.66810793    -0.82150
C497        C  0.55745339  0.27873235  0.65170403     0.98360
O498        O  0.57980130  0.25301921  0.66810687    -0.82180
O499        O  0.67320791  0.25301861  0.66810815    -0.84830
C500        C  0.72126912  0.27873215  0.65170480     1.02890
O501        O  0.74698228  0.32679385  0.66810655    -0.77590
O502        O  0.74698281  0.42020093  0.66810860    -0.77780
C503        C  0.72126904  0.44254783  0.65170367     1.02840
O504        O  0.67320833  0.42020150  0.83189251    -0.85100
O505        O  0.57980186  0.32679502  0.83189321    -0.82160
C506        C  0.55745381  0.27873390  0.84829615     0.98380
O507        O  0.57980122  0.25302024  0.83189206    -0.82190
O508        O  0.67320788  0.25301999  0.83189214    -0.84800
C509        C  0.72126934  0.27873356  0.84829498     1.02850
O510        O  0.74698294  0.32679445  0.83189085    -0.77610
O511        O  0.74698270  0.42020121  0.83189366    -0.77760
C512        C  0.72126954  0.44254945  0.84829602     1.02820
Cr513      Cr  0.63111066  0.36889162  0.75000014     1.93740
Cr514      Cr  0.63111033  0.26223112  0.74999977     1.93210
Cr515      Cr  0.73777106  0.36889180  0.74999993     1.39100
O516        O  0.66666404  0.33333814  0.74999995    -1.22850
C517        C  0.74999701  0.25000402  0.62064016    -0.02240
C518        C  0.74999746  0.25000600  0.87935972    -0.02240
C519        C  0.74999701  0.25000639  0.96484491    -0.13030
C520        C  0.74999673  0.25000483  0.53515497    -0.14580
O521        O  0.67320774  0.67019976  0.16810681    -0.85100
O522        O  0.57980113  0.57679358  0.16810796    -0.82150
C523        C  0.55745340  0.52873236  0.15170403     0.98360
O524        O  0.57980132  0.50301922  0.16810684    -0.82180
O525        O  0.67320792  0.50301863  0.16810813    -0.84830
C526        C  0.72126913  0.52873216  0.15170480     1.02890
O527        O  0.74698229  0.57679385  0.16810657    -0.77590
O528        O  0.74698282  0.67020094  0.16810862    -0.77780
C529        C  0.72126904  0.69254783  0.15170368     1.02840
O530        O  0.67320833  0.67020151  0.33189252    -0.85100
O531        O  0.57980187  0.57679504  0.33189324    -0.82160
C532        C  0.55745382  0.52873391  0.34829616     0.98380
O533        O  0.57980122  0.50302024  0.33189204    -0.82190
O534        O  0.67320789  0.50301999  0.33189213    -0.84800
C535        C  0.72126934  0.52873357  0.34829498     1.02850
O536        O  0.74698294  0.57679445  0.33189087    -0.77610
O537        O  0.74698270  0.67020121  0.33189368    -0.77760
C538        C  0.72126954  0.69254945  0.34829604     1.02820
Cr539      Cr  0.63111067  0.61889162  0.25000016     1.93740
Cr540      Cr  0.63111034  0.51223113  0.24999976     1.93210
Cr541      Cr  0.73777106  0.61889180  0.24999994     1.39100
O542        O  0.66666405  0.58333815  0.24999995    -1.22850
C543        C  0.74999703  0.50000402  0.12064017    -0.02240
C544        C  0.74999746  0.50000601  0.37935973    -0.02240
C545        C  0.74999700  0.50000639  0.46484492    -0.13030
C546        C  0.74999674  0.50000483  0.03515497    -0.14580
O547        O  0.67320775  0.67019980  0.66810685    -0.85100
O548        O  0.57980114  0.57679360  0.66810790    -0.82150
C549        C  0.55745339  0.52873236  0.65170402     0.98360
O550        O  0.57980129  0.50301921  0.66810687    -0.82180
O551        O  0.67320791  0.50301863  0.66810811    -0.84830
C552        C  0.72126913  0.52873215  0.65170481     1.02890
O553        O  0.74698230  0.57679384  0.66810659    -0.77590
O554        O  0.74698280  0.67020091  0.66810852    -0.77780
C555        C  0.72126904  0.69254783  0.65170366     1.02840
O556        O  0.67320832  0.67020149  0.83189256    -0.85100
O557        O  0.57980185  0.57679502  0.83189318    -0.82160
C558        C  0.55745382  0.52873391  0.84829615     0.98380
O559        O  0.57980124  0.50302025  0.83189206    -0.82190
O560        O  0.67320790  0.50302000  0.83189210    -0.84800
C561        C  0.72126935  0.52873358  0.84829498     1.02850
O562        O  0.74698294  0.57679447  0.83189089    -0.77610
O563        O  0.74698272  0.67020125  0.83189358    -0.77760
C564        C  0.72126954  0.69254946  0.84829601     1.02820
Cr565      Cr  0.63111067  0.61889163  0.75000014     1.93740
Cr566      Cr  0.63111034  0.51223113  0.74999975     1.93210
Cr567      Cr  0.73777106  0.61889181  0.74999991     1.39100
O568        O  0.66666405  0.58333815  0.74999993    -1.22850
C569        C  0.74999702  0.50000402  0.62064017    -0.02240
C570        C  0.74999747  0.50000601  0.87935972    -0.02240
C571        C  0.74999701  0.50000639  0.96484491    -0.13030
C572        C  0.74999673  0.50000483  0.53515498    -0.14580
O573        O  0.67320774  0.92019978  0.16810681    -0.85100
O574        O  0.57980112  0.82679358  0.16810794    -0.82150
C575        C  0.55745339  0.77873235  0.15170403     0.98360
O576        O  0.57980130  0.75301921  0.16810687    -0.82180
O577        O  0.67320791  0.75301862  0.16810814    -0.84830
C578        C  0.72126912  0.77873215  0.15170481     1.02890
O579        O  0.74698228  0.82679384  0.16810656    -0.77590
O580        O  0.74698280  0.92020093  0.16810859    -0.77780
C581        C  0.72126903  0.94254783  0.15170367     1.02840
O582        O  0.67320833  0.92020150  0.33189252    -0.85100
O583        O  0.57980187  0.82679503  0.33189322    -0.82160
C584        C  0.55745382  0.77873391  0.34829616     0.98380
O585        O  0.57980123  0.75302024  0.33189206    -0.82190
O586        O  0.67320789  0.75302000  0.33189213    -0.84800
C587        C  0.72126934  0.77873357  0.34829498     1.02850
O588        O  0.74698294  0.82679446  0.33189087    -0.77610
O589        O  0.74698271  0.92020122  0.33189365    -0.77760
C590        C  0.72126954  0.94254946  0.34829602     1.02820
Cr591      Cr  0.63111066  0.86889162  0.25000015     1.93740
Cr592      Cr  0.63111033  0.76223113  0.24999977     1.93210
Cr593      Cr  0.73777106  0.86889180  0.24999993     1.39100
O594        O  0.66666404  0.83333815  0.24999995    -1.22850
C595        C  0.74999701  0.75000402  0.12064017    -0.02240
C596        C  0.74999747  0.75000601  0.37935972    -0.02240
C597        C  0.74999701  0.75000640  0.46484491    -0.13030
C598        C  0.74999672  0.75000482  0.03515497    -0.14580
O599        O  0.67320773  0.92019976  0.66810677    -0.85100
O600        O  0.57980111  0.82679358  0.66810797    -0.82150
C601        C  0.55745339  0.77873236  0.65170403     0.98360
O602        O  0.57980132  0.75301922  0.66810684    -0.82180
O603        O  0.67320793  0.75301863  0.66810814    -0.84830
C604        C  0.72126914  0.77873217  0.65170480     1.02890
O605        O  0.74698230  0.82679386  0.66810654    -0.77590
O606        O  0.74698282  0.92020095  0.66810862    -0.77780
C607        C  0.72126904  0.94254783  0.65170366     1.02840
O608        O  0.67320834  0.92020152  0.83189248    -0.85100
O609        O  0.57980189  0.82679505  0.83189325    -0.82160
C610        C  0.55745383  0.77873392  0.84829616     0.98380
O611        O  0.57980122  0.75302024  0.83189203    -0.82190
O612        O  0.67320789  0.75302000  0.83189214    -0.84800
C613        C  0.72126934  0.77873357  0.84829498     1.02850
O614        O  0.74698294  0.82679445  0.83189084    -0.77610
O615        O  0.74698270  0.92020120  0.83189368    -0.77760
C616        C  0.72126954  0.94254946  0.84829602     1.02820
Cr617      Cr  0.63111067  0.86889163  0.75000014     1.93740
Cr618      Cr  0.63111034  0.76223113  0.74999976     1.93210
Cr619      Cr  0.73777107  0.86889181  0.74999993     1.39100
O620        O  0.66666405  0.83333815  0.74999994    -1.22850
C621        C  0.74999703  0.75000403  0.62064016    -0.02240
C622        C  0.74999747  0.75000602  0.87935972    -0.02240
C623        C  0.74999700  0.75000639  0.96484491    -0.13030
C624        C  0.74999674  0.75000484  0.53515497    -0.14580
O625        O  0.92320775  0.17019978  0.16810680    -0.85100
O626        O  0.82980114  0.07679360  0.16810788    -0.82150
C627        C  0.80745339  0.02873236  0.15170403     0.98360
O628        O  0.82980128  0.00301921  0.16810691    -0.82180
O629        O  0.92320790  0.00301863  0.16810813    -0.84830
C630        C  0.97126911  0.02873217  0.15170481     1.02890
O631        O  0.99698228  0.07679386  0.16810658    -0.77590
O632        O  0.99698282  0.17020095  0.16810862    -0.77780
C633        C  0.97126905  0.19254784  0.15170368     1.02840
O634        O  0.92320832  0.17020152  0.33189251    -0.85100
O635        O  0.82980184  0.07679504  0.33189317    -0.82160
C636        C  0.80745382  0.02873392  0.34829615     0.98380
O637        O  0.82980124  0.00302026  0.33189210    -0.82190
O638        O  0.92320789  0.00302000  0.33189212    -0.84800
C639        C  0.97126934  0.02873358  0.34829498     1.02850
O640        O  0.99698294  0.07679447  0.33189088    -0.77610
O641        O  0.99698269  0.17020121  0.33189368    -0.77760
C642        C  0.97126953  0.19254946  0.34829603     1.02820
Cr643      Cr  0.88111066  0.11889164  0.25000012     1.93740
Cr644      Cr  0.88111033  0.01223114  0.24999978     1.93210
Cr645      Cr  0.98777106  0.11889181  0.24999995     1.39100
O646        O  0.91666404  0.08333816  0.24999995    -1.22850
C647        C  0.99999701  0.00000403  0.12064017    -0.02240
C648        C  0.99999747  0.00000602  0.37935972    -0.02240
C649        C  0.99999701  0.00000640  0.46484491    -0.13030
C650        C  0.99999672  0.00000484  0.03515498    -0.14580
O651        O  0.92320773  0.17019975  0.66810676    -0.85100
O652        O  0.82980112  0.07679358  0.66810792    -0.82150
C653        C  0.80745339  0.02873235  0.65170402     0.98360
O654        O  0.82980130  0.00301921  0.66810685    -0.82180
O655        O  0.92320792  0.00301862  0.66810814    -0.84830
C656        C  0.97126913  0.02873216  0.65170480     1.02890
O657        O  0.99698229  0.07679386  0.66810655    -0.77590
O658        O  0.99698282  0.17020095  0.66810865    -0.77780
C659        C  0.97126904  0.19254783  0.65170367     1.02840
O660        O  0.92320832  0.17020151  0.83189248    -0.85100
O661        O  0.82980187  0.07679503  0.83189320    -0.82160
C662        C  0.80745382  0.02873391  0.84829615     0.98380
O663        O  0.82980122  0.00302024  0.83189204    -0.82190
O664        O  0.92320788  0.00302000  0.83189214    -0.84800
C665        C  0.97126934  0.02873357  0.84829498     1.02850
O666        O  0.99698294  0.07679445  0.83189085    -0.77610
O667        O  0.99698268  0.17020119  0.83189371    -0.77760
C668        C  0.97126952  0.19254945  0.84829603     1.02820
Cr669      Cr  0.88111066  0.11889162  0.75000012     1.93740
Cr670      Cr  0.88111034  0.01223113  0.74999976     1.93210
Cr671      Cr  0.98777106  0.11889180  0.74999994     1.39100
O672        O  0.91666404  0.08333815  0.74999994    -1.22850
C673        C  0.99999702  0.00000403  0.62064016    -0.02240
C674        C  0.99999746  0.00000601  0.87935972    -0.02240
C675        C  0.99999700  0.00000640  0.96484492    -0.13030
C676        C  0.99999673  0.00000483  0.53515497    -0.14580
O677        O  0.92320776  0.42019981  0.16810687    -0.85100
O678        O  0.82980116  0.32679361  0.16810789    -0.82150
C679        C  0.80745341  0.27873237  0.15170402     0.98360
O680        O  0.82980131  0.25301922  0.16810688    -0.82180
O681        O  0.92320792  0.25301863  0.16810816    -0.84830
C682        C  0.97126913  0.27873217  0.15170481     1.02890
O683        O  0.99698229  0.32679386  0.16810655    -0.77590
O684        O  0.99698281  0.42020093  0.16810856    -0.77780
C685        C  0.97126905  0.44254784  0.15170368     1.02840
O686        O  0.92320832  0.42020148  0.33189259    -0.85100
O687        O  0.82980184  0.32679503  0.33189318    -0.82160
C688        C  0.80745381  0.27873392  0.34829615     0.98380
O689        O  0.82980123  0.25302025  0.33189207    -0.82190
O690        O  0.92320789  0.25302002  0.33189216    -0.84800
C691        C  0.97126935  0.27873358  0.34829499     1.02850
O692        O  0.99698296  0.32679447  0.33189085    -0.77610
O693        O  0.99698272  0.42020123  0.33189362    -0.77760
C694        C  0.97126954  0.44254945  0.34829604     1.02820
Cr695      Cr  0.88111067  0.36889163  0.25000015     1.93740
Cr696      Cr  0.88111034  0.26223114  0.24999978     1.93210
Cr697      Cr  0.98777107  0.36889181  0.24999992     1.39100
O698        O  0.91666405  0.33333816  0.24999995    -1.22850
C699        C  0.99999702  0.25000403  0.12064017    -0.02240
C700        C  0.99999747  0.25000602  0.37935972    -0.02240
C701        C  0.99999701  0.25000639  0.46484491    -0.13030
C702        C  0.99999673  0.25000484  0.03515497    -0.14580
O703        O  0.92320774  0.42019977  0.66810681    -0.85100
O704        O  0.82980112  0.32679358  0.66810794    -0.82150
C705        C  0.80745339  0.27873236  0.65170402     0.98360
O706        O  0.82980131  0.25301922  0.66810683    -0.82180
O707        O  0.92320791  0.25301861  0.66810815    -0.84830
C708        C  0.97126912  0.27873215  0.65170480     1.02890
O709        O  0.99698227  0.32679384  0.66810653    -0.77590
O710        O  0.99698280  0.42020093  0.66810859    -0.77780
C711        C  0.97126903  0.44254783  0.65170367     1.02840
O712        O  0.92320833  0.42020151  0.83189252    -0.85100
O713        O  0.82980186  0.32679503  0.83189323    -0.82160
C714        C  0.80745381  0.27873391  0.84829615     0.98380
O715        O  0.82980121  0.25302023  0.83189202    -0.82190
O716        O  0.92320787  0.25302000  0.83189214    -0.84800
C717        C  0.97126933  0.27873356  0.84829497     1.02850
O718        O  0.99698294  0.32679445  0.83189083    -0.77610
O719        O  0.99698271  0.42020121  0.83189364    -0.77760
C720        C  0.97126954  0.44254946  0.84829602     1.02820
Cr721      Cr  0.88111066  0.36889162  0.75000015     1.93740
Cr722      Cr  0.88111033  0.26223112  0.74999975     1.93210
Cr723      Cr  0.98777105  0.36889180  0.74999991     1.39100
O724        O  0.91666404  0.33333815  0.74999994    -1.22850
C725        C  0.99999702  0.25000402  0.62064016    -0.02240
C726        C  0.99999745  0.25000601  0.87935972    -0.02240
C727        C  0.99999700  0.25000640  0.96484491    -0.13030
C728        C  0.99999673  0.25000482  0.53515497    -0.14580
O729        O  0.92320774  0.67019976  0.16810679    -0.85100
O730        O  0.82980113  0.57679358  0.16810793    -0.82150
C731        C  0.80745339  0.52873235  0.15170403     0.98360
O732        O  0.82980130  0.50301921  0.16810687    -0.82180
O733        O  0.92320791  0.50301864  0.16810810    -0.84830
C734        C  0.97126913  0.52873217  0.15170480     1.02890
O735        O  0.99698230  0.57679385  0.16810660    -0.77590
O736        O  0.99698282  0.67020095  0.16810866    -0.77780
C737        C  0.97126904  0.69254783  0.15170369     1.02840
O738        O  0.92320833  0.67020152  0.33189250    -0.85100
O739        O  0.82980187  0.57679503  0.33189322    -0.82160
C740        C  0.80745382  0.52873391  0.34829616     0.98380
O741        O  0.82980124  0.50302025  0.33189207    -0.82190
O742        O  0.92320790  0.50301998  0.33189209    -0.84800
C743        C  0.97126935  0.52873356  0.34829498     1.02850
O744        O  0.99698294  0.57679446  0.33189091    -0.77610
O745        O  0.99698268  0.67020120  0.33189372    -0.77760
C746        C  0.97126952  0.69254945  0.34829604     1.02820
Cr747      Cr  0.88111067  0.61889162  0.25000014     1.93740
Cr748      Cr  0.88111034  0.51223113  0.24999976     1.93210
Cr749      Cr  0.98777106  0.61889180  0.24999997     1.39100
O750        O  0.91666405  0.58333815  0.24999996    -1.22850
C751        C  0.99999702  0.50000403  0.12064017    -0.02240
C752        C  0.99999747  0.50000601  0.37935973    -0.02240
C753        C  0.99999701  0.50000640  0.46484492    -0.13030
C754        C  0.99999674  0.50000483  0.03515497    -0.14580
O755        O  0.92320776  0.67019981  0.66810686    -0.85100
O756        O  0.82980116  0.57679360  0.66810787    -0.82150
C757        C  0.80745340  0.52873236  0.65170403     0.98360
O758        O  0.82980129  0.50301921  0.66810691    -0.82180
O759        O  0.92320791  0.50301862  0.66810815    -0.84830
C760        C  0.97126912  0.52873215  0.65170481     1.02890
O761        O  0.99698229  0.57679384  0.66810655    -0.77590
O762        O  0.99698281  0.67020092  0.66810853    -0.77780
C763        C  0.97126905  0.69254784  0.65170366     1.02840
O764        O  0.92320832  0.67020148  0.83189257    -0.85100
O765        O  0.82980184  0.57679502  0.83189315    -0.82160
C766        C  0.80745382  0.52873391  0.84829615     0.98380
O767        O  0.82980124  0.50302025  0.83189210    -0.82190
O768        O  0.92320790  0.50302001  0.83189214    -0.84800
C769        C  0.97126936  0.52873358  0.84829498     1.02850
O770        O  0.99698295  0.57679447  0.83189085    -0.77610
O771        O  0.99698272  0.67020124  0.83189358    -0.77760
C772        C  0.97126954  0.69254946  0.84829602     1.02820
Cr773      Cr  0.88111067  0.61889163  0.75000013     1.93740
Cr774      Cr  0.88111034  0.51223113  0.74999979     1.93210
Cr775      Cr  0.98777107  0.61889181  0.74999990     1.39100
O776        O  0.91666405  0.58333815  0.74999994    -1.22850
C777        C  0.99999702  0.50000402  0.62064017    -0.02240
C778        C  0.99999747  0.50000601  0.87935972    -0.02240
C779        C  0.99999701  0.50000639  0.96484491    -0.13030
C780        C  0.99999673  0.50000483  0.53515498    -0.14580
O781        O  0.92320773  0.92019978  0.16810682    -0.85100
O782        O  0.82980112  0.82679358  0.16810795    -0.82150
C783        C  0.80745339  0.77873236  0.15170403     0.98360
O784        O  0.82980131  0.75301922  0.16810684    -0.82180
O785        O  0.92320791  0.75301861  0.16810814    -0.84830
C786        C  0.97126912  0.77873215  0.15170480     1.02890
O787        O  0.99698228  0.82679385  0.16810655    -0.77590
O788        O  0.99698280  0.92020093  0.16810857    -0.77780
C789        C  0.97126903  0.94254784  0.15170367     1.02840
O790        O  0.92320833  0.92020151  0.33189253    -0.85100
O791        O  0.82980187  0.82679504  0.33189324    -0.82160
C792        C  0.80745382  0.77873391  0.34829615     0.98380
O793        O  0.82980122  0.75302024  0.33189203    -0.82190
O794        O  0.92320788  0.75302000  0.33189213    -0.84800
C795        C  0.97126934  0.77873358  0.34829498     1.02850
O796        O  0.99698294  0.82679446  0.33189085    -0.77610
O797        O  0.99698271  0.92020123  0.33189363    -0.77760
C798        C  0.97126954  0.94254946  0.34829602     1.02820
Cr799      Cr  0.88111066  0.86889163  0.25000015     1.93740
Cr800      Cr  0.88111033  0.76223113  0.24999975     1.93210
Cr801      Cr  0.98777106  0.86889181  0.24999991     1.39100
O802        O  0.91666404  0.83333815  0.24999994    -1.22850
C803        C  0.99999702  0.75000402  0.12064017    -0.02240
C804        C  0.99999746  0.75000602  0.37935972    -0.02240
C805        C  0.99999701  0.75000641  0.46484492    -0.13030
C806        C  0.99999673  0.75000482  0.03515498    -0.14580
O807        O  0.92320775  0.92019977  0.66810678    -0.85100
O808        O  0.82980115  0.82679359  0.66810788    -0.82150
C809        C  0.80745339  0.77873236  0.65170403     0.98360
O810        O  0.82980128  0.75301920  0.66810693    -0.82180
O811        O  0.92320791  0.75301864  0.66810812    -0.84830
C812        C  0.97126913  0.77873217  0.65170481     1.02890
O813        O  0.99698230  0.82679386  0.66810658    -0.77590
O814        O  0.99698282  0.92020095  0.66810862    -0.77780
C815        C  0.97126905  0.94254784  0.65170367     1.02840
O816        O  0.92320832  0.92020151  0.83189250    -0.85100
O817        O  0.82980185  0.82679503  0.83189316    -0.82160
C818        C  0.80745383  0.77873392  0.84829616     0.98380
O819        O  0.82980126  0.75302026  0.83189212    -0.82190
O820        O  0.92320790  0.75301999  0.83189211    -0.84800
C821        C  0.97126935  0.77873357  0.84829498     1.02850
O822        O  0.99698294  0.82679446  0.83189088    -0.77610
O823        O  0.99698270  0.92020121  0.83189368    -0.77760
C824        C  0.97126953  0.94254945  0.84829603     1.02820
Cr825      Cr  0.88111067  0.86889163  0.75000011     1.93740
Cr826      Cr  0.88111034  0.76223113  0.74999978     1.93210
Cr827      Cr  0.98777107  0.86889181  0.74999994     1.39100
O828        O  0.91666405  0.83333815  0.74999994    -1.22850
C829        C  0.99999703  0.75000403  0.62064017    -0.02240
C830        C  0.99999747  0.75000601  0.87935972    -0.02240
C831        C  0.99999701  0.75000639  0.96484492    -0.13030
C832        C  0.99999674  0.75000484  0.53515498    -0.14580
loop_ 
_geom_bond_atom_site_label_1 
_geom_bond_atom_site_label_2 
_geom_bond_distance 
_geom_bond_site_symmetry_2 
_ccdc_geom_bond_type 
O1          Cr19   1.979       .  S
O1            C9   1.258       .  A
O2          Cr19   1.979       .  S
O2            C3   1.258       .  A
C3            O4   1.258       .  A
C3          C647   1.559   1_455  S
O4          Cr20   1.979       .  S
O5          Cr20   1.979       .  S
O5            C6   1.258       .  A
C6            O7   1.258       .  A
C6           C23   1.559       .  S
O7          Cr21   1.979       .  S
O8          Cr21   1.979       .  S
O8            C9   1.258       .  A
C9           C75   1.559       .  S
O10         Cr19   1.979       .  S
O10          C18   1.258       .  A
O11         Cr19   1.979       .  S
O11          C12   1.258       .  A
C12          O13   1.258       .  A
C12         C648   1.559   1_455  S
O13         Cr20   1.979       .  S
O14         Cr20   1.979       .  S
O14          C15   1.258       .  A
C15          O16   1.258       .  A
C15          C24   1.559       .  S
O16         Cr21   1.979       .  S
O17         Cr21   1.979       .  S
O17          C18   1.258       .  A
C18          C76   1.559       .  S
Cr19         O22   1.813       .  S
Cr20         O22   1.813       .  S
Cr21         O22   1.813       .  S
C23         C211   1.559       .  S
C23         C165   1.559   1_545  S
C23          C26   1.466       .  S
C24         C220   1.559       .  S
C24         C174   1.559   1_545  S
C24          C25   1.466       .  S
C25          C52   1.206       .  T
C26          C51   1.206   1_554  T
O27         Cr45   1.979       .  S
O27          C35   1.258       .  A
O28         Cr45   1.979       .  S
O28          C29   1.258       .  A
C29          O30   1.258       .  A
C29         C673   1.559   1_455  S
O30         Cr46   1.979       .  S
O31         Cr46   1.979       .  S
O31          C32   1.258       .  A
C32          O33   1.258       .  A
C32          C49   1.559       .  S
O33         Cr47   1.979       .  S
O34         Cr47   1.979       .  S
O34          C35   1.258       .  A
C35         C101   1.559       .  S
O36         Cr45   1.979       .  S
O36          C44   1.258       .  A
O37         Cr45   1.979       .  S
O37          C38   1.258       .  A
C38          O39   1.258       .  A
C38         C674   1.559   1_455  S
O39         Cr46   1.979       .  S
O40         Cr46   1.979       .  S
O40          C41   1.258       .  A
C41          O42   1.258       .  A
C41          C50   1.559       .  S
O42         Cr47   1.979       .  S
O43         Cr47   1.979       .  S
O43          C44   1.258       .  A
C44         C102   1.559       .  S
Cr45         O48   1.813       .  S
Cr46         O48   1.813       .  S
Cr47         O48   1.813       .  S
C49         C237   1.559       .  S
C49         C191   1.559   1_545  S
C49          C52   1.466       .  S
C50         C246   1.559       .  S
C50         C200   1.559   1_545  S
C50          C51   1.466       .  S
O53         Cr71   1.979       .  S
O53          C61   1.258       .  A
O54         Cr71   1.979       .  S
O54          C55   1.258       .  A
C55          O56   1.258       .  A
C55         C699   1.559   1_455  S
O56         Cr72   1.979       .  S
O57         Cr72   1.979       .  S
O57          C58   1.258       .  A
C58          O59   1.258       .  A
C58          C75   1.559       .  S
O59         Cr73   1.979       .  S
O60         Cr73   1.979       .  S
O60          C61   1.258       .  A
C61         C127   1.559       .  S
O62         Cr71   1.979       .  S
O62          C70   1.258       .  A
O63         Cr71   1.979       .  S
O63          C64   1.258       .  A
C64          O65   1.258       .  A
C64         C700   1.559   1_455  S
O65         Cr72   1.979       .  S
O66         Cr72   1.979       .  S
O66          C67   1.258       .  A
C67          O68   1.258       .  A
C67          C76   1.559       .  S
O68         Cr73   1.979       .  S
O69         Cr73   1.979       .  S
O69          C70   1.258       .  A
C70         C128   1.559       .  S
Cr71         O74   1.813       .  S
Cr72         O74   1.813       .  S
Cr73         O74   1.813       .  S
C75         C263   1.559       .  S
C75          C78   1.466       .  S
C76         C272   1.559       .  S
C76          C77   1.466       .  S
C77         C104   1.206       .  T
C78         C103   1.206   1_554  T
O79         Cr97   1.979       .  S
O79          C87   1.258       .  A
O80         Cr97   1.979       .  S
O80          C81   1.258       .  A
C81          O82   1.258       .  A
C81         C725   1.559   1_455  S
O82         Cr98   1.979       .  S
O83         Cr98   1.979       .  S
O83          C84   1.258       .  A
C84          O85   1.258       .  A
C84         C101   1.559       .  S
O85         Cr99   1.979       .  S
O86         Cr99   1.979       .  S
O86          C87   1.258       .  A
C87         C153   1.559       .  S
O88         Cr97   1.979       .  S
O88          C96   1.258       .  A
O89         Cr97   1.979       .  S
O89          C90   1.258       .  A
C90          O91   1.258       .  A
C90         C726   1.559   1_455  S
O91         Cr98   1.979       .  S
O92         Cr98   1.979       .  S
O92          C93   1.258       .  A
C93          O94   1.258       .  A
C93         C102   1.559       .  S
O94         Cr99   1.979       .  S
O95         Cr99   1.979       .  S
O95          C96   1.258       .  A
C96         C154   1.559       .  S
Cr97        O100   1.813       .  S
Cr98        O100   1.813       .  S
Cr99        O100   1.813       .  S
C101        C289   1.559       .  S
C101        C104   1.466       .  S
C102        C298   1.559       .  S
C102        C103   1.466       .  S
O105       Cr123   1.979       .  S
O105        C113   1.258       .  A
O106       Cr123   1.979       .  S
O106        C107   1.258       .  A
C107        O108   1.258       .  A
C107        C751   1.559   1_455  S
O108       Cr124   1.979       .  S
O109       Cr124   1.979       .  S
O109        C110   1.258       .  A
C110        O111   1.258       .  A
C110        C127   1.559       .  S
O111       Cr125   1.979       .  S
O112       Cr125   1.979       .  S
O112        C113   1.258       .  A
C113        C179   1.559       .  S
O114       Cr123   1.979       .  S
O114        C122   1.258       .  A
O115       Cr123   1.979       .  S
O115        C116   1.258       .  A
C116        O117   1.258       .  A
C116        C752   1.559   1_455  S
O117       Cr124   1.979       .  S
O118       Cr124   1.979       .  S
O118        C119   1.258       .  A
C119        O120   1.258       .  A
C119        C128   1.559       .  S
O120       Cr125   1.979       .  S
O121       Cr125   1.979       .  S
O121        C122   1.258       .  A
C122        C180   1.559       .  S
Cr123       O126   1.813       .  S
Cr124       O126   1.813       .  S
Cr125       O126   1.813       .  S
C127        C315   1.559       .  S
C127        C130   1.466       .  S
C128        C324   1.559       .  S
C128        C129   1.466       .  S
C129        C156   1.206       .  T
C130        C155   1.206   1_554  T
O131       Cr149   1.979       .  S
O131        C139   1.258       .  A
O132       Cr149   1.979       .  S
O132        C133   1.258       .  A
C133        O134   1.258       .  A
C133        C777   1.559   1_455  S
O134       Cr150   1.979       .  S
O135       Cr150   1.979       .  S
O135        C136   1.258       .  A
C136        O137   1.258       .  A
C136        C153   1.559       .  S
O137       Cr151   1.979       .  S
O138       Cr151   1.979       .  S
O138        C139   1.258       .  A
C139        C205   1.559       .  S
O140       Cr149   1.979       .  S
O140        C148   1.258       .  A
O141       Cr149   1.979       .  S
O141        C142   1.258       .  A
C142        O143   1.258       .  A
C142        C778   1.559   1_455  S
O143       Cr150   1.979       .  S
O144       Cr150   1.979       .  S
O144        C145   1.258       .  A
C145        O146   1.258       .  A
C145        C154   1.559       .  S
O146       Cr151   1.979       .  S
O147       Cr151   1.979       .  S
O147        C148   1.258       .  A
C148        C206   1.559       .  S
Cr149       O152   1.813       .  S
Cr150       O152   1.813       .  S
Cr151       O152   1.813       .  S
C153        C341   1.559       .  S
C153        C156   1.466       .  S
C154        C350   1.559       .  S
C154        C155   1.466       .  S
O157       Cr175   1.979       .  S
O157        C165   1.258       .  A
O158       Cr175   1.979       .  S
O158        C159   1.258       .  A
C159        O160   1.258       .  A
C159        C803   1.559   1_455  S
O160       Cr176   1.979       .  S
O161       Cr176   1.979       .  S
O161        C162   1.258       .  A
C162        O163   1.258       .  A
C162        C179   1.559       .  S
O163       Cr177   1.979       .  S
O164       Cr177   1.979       .  S
O164        C165   1.258       .  A
O166       Cr175   1.979       .  S
O166        C174   1.258       .  A
O167       Cr175   1.979       .  S
O167        C168   1.258       .  A
C168        O169   1.258       .  A
C168        C804   1.559   1_455  S
O169       Cr176   1.979       .  S
O170       Cr176   1.979       .  S
O170        C171   1.258       .  A
C171        O172   1.258       .  A
C171        C180   1.559       .  S
O172       Cr177   1.979       .  S
O173       Cr177   1.979       .  S
O173        C174   1.258       .  A
Cr175       O178   1.813       .  S
Cr176       O178   1.813       .  S
Cr177       O178   1.813       .  S
C179        C367   1.559       .  S
C179        C182   1.466       .  S
C180        C376   1.559       .  S
C180        C181   1.466       .  S
C181        C208   1.206       .  T
C182        C207   1.206   1_554  T
O183       Cr201   1.979       .  S
O183        C191   1.258       .  A
O184       Cr201   1.979       .  S
O184        C185   1.258       .  A
C185        O186   1.258       .  A
C185        C829   1.559   1_455  S
O186       Cr202   1.979       .  S
O187       Cr202   1.979       .  S
O187        C188   1.258       .  A
C188        O189   1.258       .  A
C188        C205   1.559       .  S
O189       Cr203   1.979       .  S
O190       Cr203   1.979       .  S
O190        C191   1.258       .  A
O192       Cr201   1.979       .  S
O192        C200   1.258       .  A
O193       Cr201   1.979       .  S
O193        C194   1.258       .  A
C194        O195   1.258       .  A
C194        C830   1.559   1_455  S
O195       Cr202   1.979       .  S
O196       Cr202   1.979       .  S
O196        C197   1.258       .  A
C197        O198   1.258       .  A
C197        C206   1.559       .  S
O198       Cr203   1.979       .  S
O199       Cr203   1.979       .  S
O199        C200   1.258       .  A
Cr201       O204   1.813       .  S
Cr202       O204   1.813       .  S
Cr203       O204   1.813       .  S
C205        C393   1.559       .  S
C205        C208   1.466       .  S
C206        C402   1.559       .  S
C206        C207   1.466       .  S
O209       Cr227   1.979       .  S
O209        C217   1.258       .  A
O210       Cr227   1.979       .  S
O210        C211   1.258       .  A
C211        O212   1.258       .  A
O212       Cr228   1.979       .  S
O213       Cr228   1.979       .  S
O213        C214   1.258       .  A
C214        O215   1.258       .  A
C214        C231   1.559       .  S
O215       Cr229   1.979       .  S
O216       Cr229   1.979       .  S
O216        C217   1.258       .  A
C217        C283   1.559       .  S
O218       Cr227   1.979       .  S
O218        C226   1.258       .  A
O219       Cr227   1.979       .  S
O219        C220   1.258       .  A
C220        O221   1.258       .  A
O221       Cr228   1.979       .  S
O222       Cr228   1.979       .  S
O222        C223   1.258       .  A
C223        O224   1.258       .  A
C223        C232   1.559       .  S
O224       Cr229   1.979       .  S
O225       Cr229   1.979       .  S
O225        C226   1.258       .  A
C226        C284   1.559       .  S
Cr227       O230   1.813       .  S
Cr228       O230   1.813       .  S
Cr229       O230   1.813       .  S
C231        C419   1.559       .  S
C231        C373   1.559   1_545  S
C231        C234   1.466       .  S
C232        C428   1.559       .  S
C232        C382   1.559   1_545  S
C232        C233   1.466       .  S
C233        C260   1.206       .  T
C234        C259   1.206   1_554  T
O235       Cr253   1.979       .  S
O235        C243   1.258       .  A
O236       Cr253   1.979       .  S
O236        C237   1.258       .  A
C237        O238   1.258       .  A
O238       Cr254   1.979       .  S
O239       Cr254   1.979       .  S
O239        C240   1.258       .  A
C240        O241   1.258       .  A
C240        C257   1.559       .  S
O241       Cr255   1.979       .  S
O242       Cr255   1.979       .  S
O242        C243   1.258       .  A
C243        C309   1.559       .  S
O244       Cr253   1.979       .  S
O244        C252   1.258       .  A
O245       Cr253   1.979       .  S
O245        C246   1.258       .  A
C246        O247   1.258       .  A
O247       Cr254   1.979       .  S
O248       Cr254   1.979       .  S
O248        C249   1.258       .  A
C249        O250   1.258       .  A
C249        C258   1.559       .  S
O250       Cr255   1.979       .  S
O251       Cr255   1.979       .  S
O251        C252   1.258       .  A
C252        C310   1.559       .  S
Cr253       O256   1.813       .  S
Cr254       O256   1.813       .  S
Cr255       O256   1.813       .  S
C257        C445   1.559       .  S
C257        C399   1.559   1_545  S
C257        C260   1.466       .  S
C258        C454   1.559       .  S
C258        C408   1.559   1_545  S
C258        C259   1.466       .  S
O261       Cr279   1.979       .  S
O261        C269   1.258       .  A
O262       Cr279   1.979       .  S
O262        C263   1.258       .  A
C263        O264   1.258       .  A
O264       Cr280   1.979       .  S
O265       Cr280   1.979       .  S
O265        C266   1.258       .  A
C266        O267   1.258       .  A
C266        C283   1.559       .  S
O267       Cr281   1.979       .  S
O268       Cr281   1.979       .  S
O268        C269   1.258       .  A
C269        C335   1.559       .  S
O270       Cr279   1.979       .  S
O270        C278   1.258       .  A
O271       Cr279   1.979       .  S
O271        C272   1.258       .  A
C272        O273   1.258       .  A
O273       Cr280   1.979       .  S
O274       Cr280   1.979       .  S
O274        C275   1.258       .  A
C275        O276   1.258       .  A
C275        C284   1.559       .  S
O276       Cr281   1.979       .  S
O277       Cr281   1.979       .  S
O277        C278   1.258       .  A
C278        C336   1.559       .  S
Cr279       O282   1.813       .  S
Cr280       O282   1.813       .  S
Cr281       O282   1.813       .  S
C283        C471   1.559       .  S
C283        C286   1.466       .  S
C284        C480   1.559       .  S
C284        C285   1.466       .  S
C285        C312   1.206       .  T
C286        C311   1.206   1_554  T
O287       Cr305   1.979       .  S
O287        C295   1.258       .  A
O288       Cr305   1.979       .  S
O288        C289   1.258       .  A
C289        O290   1.258       .  A
O290       Cr306   1.979       .  S
O291       Cr306   1.979       .  S
O291        C292   1.258       .  A
C292        O293   1.258       .  A
C292        C309   1.559       .  S
O293       Cr307   1.979       .  S
O294       Cr307   1.979       .  S
O294        C295   1.258       .  A
C295        C361   1.559       .  S
O296       Cr305   1.979       .  S
O296        C304   1.258       .  A
O297       Cr305   1.979       .  S
O297        C298   1.258       .  A
C298        O299   1.258       .  A
O299       Cr306   1.979       .  S
O300       Cr306   1.979       .  S
O300        C301   1.258       .  A
C301        O302   1.258       .  A
C301        C310   1.559       .  S
O302       Cr307   1.979       .  S
O303       Cr307   1.979       .  S
O303        C304   1.258       .  A
C304        C362   1.559       .  S
Cr305       O308   1.813       .  S
Cr306       O308   1.813       .  S
Cr307       O308   1.813       .  S
C309        C497   1.559       .  S
C309        C312   1.466       .  S
C310        C506   1.559       .  S
C310        C311   1.466       .  S
O313       Cr331   1.979       .  S
O313        C321   1.258       .  A
O314       Cr331   1.979       .  S
O314        C315   1.258       .  A
C315        O316   1.258       .  A
O316       Cr332   1.979       .  S
O317       Cr332   1.979       .  S
O317        C318   1.258       .  A
C318        O319   1.258       .  A
C318        C335   1.559       .  S
O319       Cr333   1.979       .  S
O320       Cr333   1.979       .  S
O320        C321   1.258       .  A
C321        C387   1.559       .  S
O322       Cr331   1.979       .  S
O322        C330   1.258       .  A
O323       Cr331   1.979       .  S
O323        C324   1.258       .  A
C324        O325   1.258       .  A
O325       Cr332   1.979       .  S
O326       Cr332   1.979       .  S
O326        C327   1.258       .  A
C327        O328   1.258       .  A
C327        C336   1.559       .  S
O328       Cr333   1.979       .  S
O329       Cr333   1.979       .  S
O329        C330   1.258       .  A
C330        C388   1.559       .  S
Cr331       O334   1.813       .  S
Cr332       O334   1.813       .  S
Cr333       O334   1.813       .  S
C335        C523   1.559       .  S
C335        C338   1.466       .  S
C336        C532   1.559       .  S
C336        C337   1.466       .  S
C337        C364   1.206       .  T
C338        C363   1.206   1_554  T
O339       Cr357   1.979       .  S
O339        C347   1.258       .  A
O340       Cr357   1.979       .  S
O340        C341   1.258       .  A
C341        O342   1.258       .  A
O342       Cr358   1.979       .  S
O343       Cr358   1.979       .  S
O343        C344   1.258       .  A
C344        O345   1.258       .  A
C344        C361   1.559       .  S
O345       Cr359   1.979       .  S
O346       Cr359   1.979       .  S
O346        C347   1.258       .  A
C347        C413   1.559       .  S
O348       Cr357   1.979       .  S
O348        C356   1.258       .  A
O349       Cr357   1.979       .  S
O349        C350   1.258       .  A
C350        O351   1.258       .  A
O351       Cr358   1.979       .  S
O352       Cr358   1.979       .  S
O352        C353   1.258       .  A
C353        O354   1.258       .  A
C353        C362   1.559       .  S
O354       Cr359   1.979       .  S
O355       Cr359   1.979       .  S
O355        C356   1.258       .  A
C356        C414   1.559       .  S
Cr357       O360   1.813       .  S
Cr358       O360   1.813       .  S
Cr359       O360   1.813       .  S
C361        C549   1.559       .  S
C361        C364   1.466       .  S
C362        C558   1.559       .  S
C362        C363   1.466       .  S
O365       Cr383   1.979       .  S
O365        C373   1.258       .  A
O366       Cr383   1.979       .  S
O366        C367   1.258       .  A
C367        O368   1.258       .  A
O368       Cr384   1.979       .  S
O369       Cr384   1.979       .  S
O369        C370   1.258       .  A
C370        O371   1.258       .  A
C370        C387   1.559       .  S
O371       Cr385   1.979       .  S
O372       Cr385   1.979       .  S
O372        C373   1.258       .  A
O374       Cr383   1.979       .  S
O374        C382   1.258       .  A
O375       Cr383   1.979       .  S
O375        C376   1.258       .  A
C376        O377   1.258       .  A
O377       Cr384   1.979       .  S
O378       Cr384   1.979       .  S
O378        C379   1.258       .  A
C379        O380   1.258       .  A
C379        C388   1.559       .  S
O380       Cr385   1.979       .  S
O381       Cr385   1.979       .  S
O381        C382   1.258       .  A
Cr383       O386   1.813       .  S
Cr384       O386   1.813       .  S
Cr385       O386   1.813       .  S
C387        C575   1.559       .  S
C387        C390   1.466       .  S
C388        C584   1.559       .  S
C388        C389   1.466       .  S
C389        C416   1.206       .  T
C390        C415   1.206   1_554  T
O391       Cr409   1.979       .  S
O391        C399   1.258       .  A
O392       Cr409   1.979       .  S
O392        C393   1.258       .  A
C393        O394   1.258       .  A
O394       Cr410   1.979       .  S
O395       Cr410   1.979       .  S
O395        C396   1.258       .  A
C396        O397   1.258       .  A
C396        C413   1.559       .  S
O397       Cr411   1.979       .  S
O398       Cr411   1.979       .  S
O398        C399   1.258       .  A
O400       Cr409   1.979       .  S
O400        C408   1.258       .  A
O401       Cr409   1.979       .  S
O401        C402   1.258       .  A
C402        O403   1.258       .  A
O403       Cr410   1.979       .  S
O404       Cr410   1.979       .  S
O404        C405   1.258       .  A
C405        O406   1.258       .  A
C405        C414   1.559       .  S
O406       Cr411   1.979       .  S
O407       Cr411   1.979       .  S
O407        C408   1.258       .  A
Cr409       O412   1.813       .  S
Cr410       O412   1.813       .  S
Cr411       O412   1.813       .  S
C413        C601   1.559       .  S
C413        C416   1.466       .  S
C414        C610   1.559       .  S
C414        C415   1.466       .  S
O417       Cr435   1.979       .  S
O417        C425   1.258       .  A
O418       Cr435   1.979       .  S
O418        C419   1.258       .  A
C419        O420   1.258       .  A
O420       Cr436   1.979       .  S
O421       Cr436   1.979       .  S
O421        C422   1.258       .  A
C422        O423   1.258       .  A
C422        C439   1.559       .  S
O423       Cr437   1.979       .  S
O424       Cr437   1.979       .  S
O424        C425   1.258       .  A
C425        C491   1.559       .  S
O426       Cr435   1.979       .  S
O426        C434   1.258       .  A
O427       Cr435   1.979       .  S
O427        C428   1.258       .  A
C428        O429   1.258       .  A
O429       Cr436   1.979       .  S
O430       Cr436   1.979       .  S
O430        C431   1.258       .  A
C431        O432   1.258       .  A
C431        C440   1.559       .  S
O432       Cr437   1.979       .  S
O433       Cr437   1.979       .  S
O433        C434   1.258       .  A
C434        C492   1.559       .  S
Cr435       O438   1.813       .  S
Cr436       O438   1.813       .  S
Cr437       O438   1.813       .  S
C439        C627   1.559       .  S
C439        C581   1.559   1_545  S
C439        C442   1.466       .  S
C440        C636   1.559       .  S
C440        C590   1.559   1_545  S
C440        C441   1.466       .  S
C441        C468   1.206       .  T
C442        C467   1.206   1_554  T
O443       Cr461   1.979       .  S
O443        C451   1.258       .  A
O444       Cr461   1.979       .  S
O444        C445   1.258       .  A
C445        O446   1.258       .  A
O446       Cr462   1.979       .  S
O447       Cr462   1.979       .  S
O447        C448   1.258       .  A
C448        O449   1.258       .  A
C448        C465   1.559       .  S
O449       Cr463   1.979       .  S
O450       Cr463   1.979       .  S
O450        C451   1.258       .  A
C451        C517   1.559       .  S
O452       Cr461   1.979       .  S
O452        C460   1.258       .  A
O453       Cr461   1.979       .  S
O453        C454   1.258       .  A
C454        O455   1.258       .  A
O455       Cr462   1.979       .  S
O456       Cr462   1.979       .  S
O456        C457   1.258       .  A
C457        O458   1.258       .  A
C457        C466   1.559       .  S
O458       Cr463   1.979       .  S
O459       Cr463   1.979       .  S
O459        C460   1.258       .  A
C460        C518   1.559       .  S
Cr461       O464   1.813       .  S
Cr462       O464   1.813       .  S
Cr463       O464   1.813       .  S
C465        C653   1.559       .  S
C465        C607   1.559   1_545  S
C465        C468   1.466       .  S
C466        C662   1.559       .  S
C466        C616   1.559   1_545  S
C466        C467   1.466       .  S
O469       Cr487   1.979       .  S
O469        C477   1.258       .  A
O470       Cr487   1.979       .  S
O470        C471   1.258       .  A
C471        O472   1.258       .  A
O472       Cr488   1.979       .  S
O473       Cr488   1.979       .  S
O473        C474   1.258       .  A
C474        O475   1.258       .  A
C474        C491   1.559       .  S
O475       Cr489   1.979       .  S
O476       Cr489   1.979       .  S
O476        C477   1.258       .  A
C477        C543   1.559       .  S
O478       Cr487   1.979       .  S
O478        C486   1.258       .  A
O479       Cr487   1.979       .  S
O479        C480   1.258       .  A
C480        O481   1.258       .  A
O481       Cr488   1.979       .  S
O482       Cr488   1.979       .  S
O482        C483   1.258       .  A
C483        O484   1.258       .  A
C483        C492   1.559       .  S
O484       Cr489   1.979       .  S
O485       Cr489   1.979       .  S
O485        C486   1.258       .  A
C486        C544   1.559       .  S
Cr487       O490   1.813       .  S
Cr488       O490   1.813       .  S
Cr489       O490   1.813       .  S
C491        C679   1.559       .  S
C491        C494   1.466       .  S
C492        C688   1.559       .  S
C492        C493   1.466       .  S
C493        C520   1.206       .  T
C494        C519   1.206   1_554  T
O495       Cr513   1.979       .  S
O495        C503   1.258       .  A
O496       Cr513   1.979       .  S
O496        C497   1.258       .  A
C497        O498   1.258       .  A
O498       Cr514   1.979       .  S
O499       Cr514   1.979       .  S
O499        C500   1.258       .  A
C500        O501   1.258       .  A
C500        C517   1.559       .  S
O501       Cr515   1.979       .  S
O502       Cr515   1.979       .  S
O502        C503   1.258       .  A
C503        C569   1.559       .  S
O504       Cr513   1.979       .  S
O504        C512   1.258       .  A
O505       Cr513   1.979       .  S
O505        C506   1.258       .  A
C506        O507   1.258       .  A
O507       Cr514   1.979       .  S
O508       Cr514   1.979       .  S
O508        C509   1.258       .  A
C509        O510   1.258       .  A
C509        C518   1.559       .  S
O510       Cr515   1.979       .  S
O511       Cr515   1.979       .  S
O511        C512   1.258       .  A
C512        C570   1.559       .  S
Cr513       O516   1.813       .  S
Cr514       O516   1.813       .  S
Cr515       O516   1.813       .  S
C517        C705   1.559       .  S
C517        C520   1.466       .  S
C518        C714   1.559       .  S
C518        C519   1.466       .  S
O521       Cr539   1.979       .  S
O521        C529   1.258       .  A
O522       Cr539   1.979       .  S
O522        C523   1.258       .  A
C523        O524   1.258       .  A
O524       Cr540   1.979       .  S
O525       Cr540   1.979       .  S
O525        C526   1.258       .  A
C526        O527   1.258       .  A
C526        C543   1.559       .  S
O527       Cr541   1.979       .  S
O528       Cr541   1.979       .  S
O528        C529   1.258       .  A
C529        C595   1.559       .  S
O530       Cr539   1.979       .  S
O530        C538   1.258       .  A
O531       Cr539   1.979       .  S
O531        C532   1.258       .  A
C532        O533   1.258       .  A
O533       Cr540   1.979       .  S
O534       Cr540   1.979       .  S
O534        C535   1.258       .  A
C535        O536   1.258       .  A
C535        C544   1.559       .  S
O536       Cr541   1.979       .  S
O537       Cr541   1.979       .  S
O537        C538   1.258       .  A
C538        C596   1.559       .  S
Cr539       O542   1.813       .  S
Cr540       O542   1.813       .  S
Cr541       O542   1.813       .  S
C543        C731   1.559       .  S
C543        C546   1.466       .  S
C544        C740   1.559       .  S
C544        C545   1.466       .  S
C545        C572   1.206       .  T
C546        C571   1.206   1_554  T
O547       Cr565   1.979       .  S
O547        C555   1.258       .  A
O548       Cr565   1.979       .  S
O548        C549   1.258       .  A
C549        O550   1.258       .  A
O550       Cr566   1.979       .  S
O551       Cr566   1.979       .  S
O551        C552   1.258       .  A
C552        O553   1.258       .  A
C552        C569   1.559       .  S
O553       Cr567   1.979       .  S
O554       Cr567   1.979       .  S
O554        C555   1.258       .  A
C555        C621   1.559       .  S
O556       Cr565   1.979       .  S
O556        C564   1.258       .  A
O557       Cr565   1.979       .  S
O557        C558   1.258       .  A
C558        O559   1.258       .  A
O559       Cr566   1.979       .  S
O560       Cr566   1.979       .  S
O560        C561   1.258       .  A
C561        O562   1.258       .  A
C561        C570   1.559       .  S
O562       Cr567   1.979       .  S
O563       Cr567   1.979       .  S
O563        C564   1.258       .  A
C564        C622   1.559       .  S
Cr565       O568   1.813       .  S
Cr566       O568   1.813       .  S
Cr567       O568   1.813       .  S
C569        C757   1.559       .  S
C569        C572   1.466       .  S
C570        C766   1.559       .  S
C570        C571   1.466       .  S
O573       Cr591   1.979       .  S
O573        C581   1.258       .  A
O574       Cr591   1.979       .  S
O574        C575   1.258       .  A
C575        O576   1.258       .  A
O576       Cr592   1.979       .  S
O577       Cr592   1.979       .  S
O577        C578   1.258       .  A
C578        O579   1.258       .  A
C578        C595   1.559       .  S
O579       Cr593   1.979       .  S
O580       Cr593   1.979       .  S
O580        C581   1.258       .  A
O582       Cr591   1.979       .  S
O582        C590   1.258       .  A
O583       Cr591   1.979       .  S
O583        C584   1.258       .  A
C584        O585   1.258       .  A
O585       Cr592   1.979       .  S
O586       Cr592   1.979       .  S
O586        C587   1.258       .  A
C587        O588   1.258       .  A
C587        C596   1.559       .  S
O588       Cr593   1.979       .  S
O589       Cr593   1.979       .  S
O589        C590   1.258       .  A
Cr591       O594   1.813       .  S
Cr592       O594   1.813       .  S
Cr593       O594   1.813       .  S
C595        C783   1.559       .  S
C595        C598   1.466       .  S
C596        C792   1.559       .  S
C596        C597   1.466       .  S
C597        C624   1.206       .  T
C598        C623   1.206   1_554  T
O599       Cr617   1.979       .  S
O599        C607   1.258       .  A
O600       Cr617   1.979       .  S
O600        C601   1.258       .  A
C601        O602   1.258       .  A
O602       Cr618   1.979       .  S
O603       Cr618   1.979       .  S
O603        C604   1.258       .  A
C604        O605   1.258       .  A
C604        C621   1.559       .  S
O605       Cr619   1.979       .  S
O606       Cr619   1.979       .  S
O606        C607   1.258       .  A
O608       Cr617   1.979       .  S
O608        C616   1.258       .  A
O609       Cr617   1.979       .  S
O609        C610   1.258       .  A
C610        O611   1.258       .  A
O611       Cr618   1.979       .  S
O612       Cr618   1.979       .  S
O612        C613   1.258       .  A
C613        O614   1.258       .  A
C613        C622   1.559       .  S
O614       Cr619   1.979       .  S
O615       Cr619   1.979       .  S
O615        C616   1.258       .  A
Cr617       O620   1.813       .  S
Cr618       O620   1.813       .  S
Cr619       O620   1.813       .  S
C621        C809   1.559       .  S
C621        C624   1.466       .  S
C622        C818   1.559       .  S
C622        C623   1.466       .  S
O625       Cr643   1.979       .  S
O625        C633   1.258       .  A
O626       Cr643   1.979       .  S
O626        C627   1.258       .  A
C627        O628   1.258       .  A
O628       Cr644   1.979       .  S
O629       Cr644   1.979       .  S
O629        C630   1.258       .  A
C630        O631   1.258       .  A
C630        C647   1.559       .  S
O631       Cr645   1.979       .  S
O632       Cr645   1.979       .  S
O632        C633   1.258       .  A
C633        C699   1.559       .  S
O634       Cr643   1.979       .  S
O634        C642   1.258       .  A
O635       Cr643   1.979       .  S
O635        C636   1.258       .  A
C636        O637   1.258       .  A
O637       Cr644   1.979       .  S
O638       Cr644   1.979       .  S
O638        C639   1.258       .  A
C639        O640   1.258       .  A
C639        C648   1.559       .  S
O640       Cr645   1.979       .  S
O641       Cr645   1.979       .  S
O641        C642   1.258       .  A
C642        C700   1.559       .  S
Cr643       O646   1.813       .  S
Cr644       O646   1.813       .  S
Cr645       O646   1.813       .  S
C647        C789   1.559   1_545  S
C647        C650   1.466       .  S
C648        C798   1.559   1_545  S
C648        C649   1.466       .  S
C649        C676   1.206       .  T
C650        C675   1.206   1_554  T
O651       Cr669   1.979       .  S
O651        C659   1.258       .  A
O652       Cr669   1.979       .  S
O652        C653   1.258       .  A
C653        O654   1.258       .  A
O654       Cr670   1.979       .  S
O655       Cr670   1.979       .  S
O655        C656   1.258       .  A
C656        O657   1.258       .  A
C656        C673   1.559       .  S
O657       Cr671   1.979       .  S
O658       Cr671   1.979       .  S
O658        C659   1.258       .  A
C659        C725   1.559       .  S
O660       Cr669   1.979       .  S
O660        C668   1.258       .  A
O661       Cr669   1.979       .  S
O661        C662   1.258       .  A
C662        O663   1.258       .  A
O663       Cr670   1.979       .  S
O664       Cr670   1.979       .  S
O664        C665   1.258       .  A
C665        O666   1.258       .  A
C665        C674   1.559       .  S
O666       Cr671   1.979       .  S
O667       Cr671   1.979       .  S
O667        C668   1.258       .  A
C668        C726   1.559       .  S
Cr669       O672   1.813       .  S
Cr670       O672   1.813       .  S
Cr671       O672   1.813       .  S
C673        C815   1.559   1_545  S
C673        C676   1.466       .  S
C674        C824   1.559   1_545  S
C674        C675   1.466       .  S
O677       Cr695   1.979       .  S
O677        C685   1.258       .  A
O678       Cr695   1.979       .  S
O678        C679   1.258       .  A
C679        O680   1.258       .  A
O680       Cr696   1.979       .  S
O681       Cr696   1.979       .  S
O681        C682   1.258       .  A
C682        O683   1.258       .  A
C682        C699   1.559       .  S
O683       Cr697   1.979       .  S
O684       Cr697   1.979       .  S
O684        C685   1.258       .  A
C685        C751   1.559       .  S
O686       Cr695   1.979       .  S
O686        C694   1.258       .  A
O687       Cr695   1.979       .  S
O687        C688   1.258       .  A
C688        O689   1.258       .  A
O689       Cr696   1.979       .  S
O690       Cr696   1.979       .  S
O690        C691   1.258       .  A
C691        O692   1.258       .  A
C691        C700   1.559       .  S
O692       Cr697   1.979       .  S
O693       Cr697   1.979       .  S
O693        C694   1.258       .  A
C694        C752   1.559       .  S
Cr695       O698   1.813       .  S
Cr696       O698   1.813       .  S
Cr697       O698   1.813       .  S
C699        C702   1.466       .  S
C700        C701   1.466       .  S
C701        C728   1.206       .  T
C702        C727   1.206   1_554  T
O703       Cr721   1.979       .  S
O703        C711   1.258       .  A
O704       Cr721   1.979       .  S
O704        C705   1.258       .  A
C705        O706   1.258       .  A
O706       Cr722   1.979       .  S
O707       Cr722   1.979       .  S
O707        C708   1.258       .  A
C708        O709   1.258       .  A
C708        C725   1.559       .  S
O709       Cr723   1.979       .  S
O710       Cr723   1.979       .  S
O710        C711   1.258       .  A
C711        C777   1.559       .  S
O712       Cr721   1.979       .  S
O712        C720   1.258       .  A
O713       Cr721   1.979       .  S
O713        C714   1.258       .  A
C714        O715   1.258       .  A
O715       Cr722   1.979       .  S
O716       Cr722   1.979       .  S
O716        C717   1.258       .  A
C717        O718   1.258       .  A
C717        C726   1.559       .  S
O718       Cr723   1.979       .  S
O719       Cr723   1.979       .  S
O719        C720   1.258       .  A
C720        C778   1.559       .  S
Cr721       O724   1.813       .  S
Cr722       O724   1.813       .  S
Cr723       O724   1.813       .  S
C725        C728   1.466       .  S
C726        C727   1.466       .  S
O729       Cr747   1.979       .  S
O729        C737   1.258       .  A
O730       Cr747   1.979       .  S
O730        C731   1.258       .  A
C731        O732   1.258       .  A
O732       Cr748   1.979       .  S
O733       Cr748   1.979       .  S
O733        C734   1.258       .  A
C734        O735   1.258       .  A
C734        C751   1.559       .  S
O735       Cr749   1.979       .  S
O736       Cr749   1.979       .  S
O736        C737   1.258       .  A
C737        C803   1.559       .  S
O738       Cr747   1.979       .  S
O738        C746   1.258       .  A
O739       Cr747   1.979       .  S
O739        C740   1.258       .  A
C740        O741   1.258       .  A
O741       Cr748   1.979       .  S
O742       Cr748   1.979       .  S
O742        C743   1.258       .  A
C743        O744   1.258       .  A
C743        C752   1.559       .  S
O744       Cr749   1.979       .  S
O745       Cr749   1.979       .  S
O745        C746   1.258       .  A
C746        C804   1.559       .  S
Cr747       O750   1.813       .  S
Cr748       O750   1.813       .  S
Cr749       O750   1.813       .  S
C751        C754   1.466       .  S
C752        C753   1.466       .  S
C753        C780   1.206       .  T
C754        C779   1.206   1_554  T
O755       Cr773   1.979       .  S
O755        C763   1.258       .  A
O756       Cr773   1.979       .  S
O756        C757   1.258       .  A
C757        O758   1.258       .  A
O758       Cr774   1.979       .  S
O759       Cr774   1.979       .  S
O759        C760   1.258       .  A
C760        O761   1.258       .  A
C760        C777   1.559       .  S
O761       Cr775   1.979       .  S
O762       Cr775   1.979       .  S
O762        C763   1.258       .  A
C763        C829   1.559       .  S
O764       Cr773   1.979       .  S
O764        C772   1.258       .  A
O765       Cr773   1.979       .  S
O765        C766   1.258       .  A
C766        O767   1.258       .  A
O767       Cr774   1.979       .  S
O768       Cr774   1.979       .  S
O768        C769   1.258       .  A
C769        O770   1.258       .  A
C769        C778   1.559       .  S
O770       Cr775   1.979       .  S
O771       Cr775   1.979       .  S
O771        C772   1.258       .  A
C772        C830   1.559       .  S
Cr773       O776   1.813       .  S
Cr774       O776   1.813       .  S
Cr775       O776   1.813       .  S
C777        C780   1.466       .  S
C778        C779   1.466       .  S
O781       Cr799   1.979       .  S
O781        C789   1.258       .  A
O782       Cr799   1.979       .  S
O782        C783   1.258       .  A
C783        O784   1.258       .  A
O784       Cr800   1.979       .  S
O785       Cr800   1.979       .  S
O785        C786   1.258       .  A
C786        O787   1.258       .  A
C786        C803   1.559       .  S
O787       Cr801   1.979       .  S
O788       Cr801   1.979       .  S
O788        C789   1.258       .  A
O790       Cr799   1.979       .  S
O790        C798   1.258       .  A
O791       Cr799   1.979       .  S
O791        C792   1.258       .  A
C792        O793   1.258       .  A
O793       Cr800   1.979       .  S
O794       Cr800   1.979       .  S
O794        C795   1.258       .  A
C795        O796   1.258       .  A
C795        C804   1.559       .  S
O796       Cr801   1.979       .  S
O797       Cr801   1.979       .  S
O797        C798   1.258       .  A
Cr799       O802   1.813       .  S
Cr800       O802   1.813       .  S
Cr801       O802   1.813       .  S
C803        C806   1.466       .  S
C804        C805   1.466       .  S
C805        C832   1.206       .  T
C806        C831   1.206   1_554  T
O807       Cr825   1.979       .  S
O807        C815   1.258       .  A
O808       Cr825   1.979       .  S
O808        C809   1.258       .  A
C809        O810   1.258       .  A
O810       Cr826   1.979       .  S
O811       Cr826   1.979       .  S
O811        C812   1.258       .  A
C812        O813   1.258       .  A
C812        C829   1.559       .  S
O813       Cr827   1.979       .  S
O814       Cr827   1.979       .  S
O814        C815   1.258       .  A
O816       Cr825   1.979       .  S
O816        C824   1.258       .  A
O817       Cr825   1.979       .  S
O817        C818   1.258       .  A
C818        O819   1.258       .  A
O819       Cr826   1.979       .  S
O820       Cr826   1.979       .  S
O820        C821   1.258       .  A
C821        O822   1.258       .  A
C821        C830   1.559       .  S
O822       Cr827   1.979       .  S
O823       Cr827   1.979       .  S
O823        C824   1.258       .  A
Cr825       O828   1.813       .  S
Cr826       O828   1.813       .  S
Cr827       O828   1.813       .  S
C829        C832   1.466       .  S
C830        C831   1.466       .  S
