geometry optimzed in LAMMPS
_audit_creation_date              2020-12-01 
_audit_creation_method            'lammps2cif' 
_symmetry_space_group_name_H-M    'P1' 
_symmetry_Int_Tables_number       1 
_symmetry_cell_setting            triclinic 
loop_ 
_symmetry_equiv_pos_as_xyz 
  x,y,z 
_cell_length_a                    56.23879162 
_cell_length_b                    56.22995480970873 
_cell_length_c                    56.24040413720921 
_cell_angle_alpha                 90.00014313929495 
_cell_angle_beta                  89.99909382852515 
_cell_angle_gamma                 90.00403892264956 
loop_ 
_atom_site_label 
_atom_site_type_symbol 
_atom_site_fract_x 
_atom_site_fract_y 
_atom_site_fract_z 
_atom_site_charge 
N1          N  0.68810997  0.70321513  0.86445376    -0.25100
N2          N  0.70485759  0.68670630  0.86419720    -0.33000
C3          C  0.72022300  0.69088665  0.88201707     0.03200
C4          C  0.71264343  0.71090756  0.89393116     0.09300
C5          C  0.69233960  0.71837016  0.88244035    -0.03800
H6          H  0.73592164  0.68038944  0.88569673     0.09900
H7          H  0.68167552  0.73385798  0.88651821     0.11100
Cu8        Cu  0.70662043  0.65987536  0.83916502     0.44200
Cu9        Cu  0.66087683  0.70499496  0.83987755     0.42000
Cu10       Cu  0.66097432  0.66012726  0.79393969     0.43900
N11         N  0.70487041  0.63537553  0.81184715    -0.32500
N12         N  0.68816577  0.63547542  0.79529503    -0.26700
C13         C  0.69235847  0.61773124  0.77984559    -0.02800
C14         C  0.71259504  0.60602781  0.78716044     0.09400
C15         C  0.72017040  0.61756236  0.80740122     0.03200
H16         H  0.68169180  0.61393636  0.76428979     0.10800
H17         H  0.73580175  0.61360751  0.81789768     0.09900
N18         N  0.63604336  0.68701229  0.79607543    -0.33900
N19         N  0.63600114  0.70343932  0.81290416    -0.26100
C20         C  0.61801186  0.71866075  0.80893008    -0.01400
C21         C  0.60629729  0.71132152  0.78870694     0.07300
C22         C  0.61808233  0.69130949  0.78091142     0.05400
H23         H  0.61408452  0.73410994  0.81970643     0.10500
H24         H  0.61421959  0.68089770  0.76519935     0.09300
N25         N  0.70382474  0.90379660  0.64984255    -0.25100
N26         N  0.68744488  0.90355100  0.66671441    -0.33000
C27         C  0.69186383  0.92124565  0.68215845     0.03200
C28         C  0.71190778  0.93306630  0.67450291     0.09300
C29         C  0.71913598  0.92165357  0.65406923    -0.03800
H30         H  0.68148407  0.92492926  0.69793348     0.09900
H31         H  0.73454266  0.92572258  0.64328687     0.11100
Cu32       Cu  0.66038957  0.87877311  0.66846838     0.44200
Cu33       Cu  0.70514187  0.87944159  0.62238041     0.42000
Cu34       Cu  0.65961621  0.83413127  0.62226524     0.43900
N35         N  0.63553937  0.85178960  0.66663116    -0.32500
N36         N  0.63525167  0.83545337  0.64971538    -0.26700
C37         C  0.61736516  0.82016793  0.65390769    -0.02800
C38         C  0.60597756  0.82736819  0.67436462     0.09400
C39         C  0.61784342  0.84736766  0.68206963     0.03200
H40         H  0.61326738  0.80478912  0.64309345     0.10800
H41         H  0.61419647  0.85770746  0.69788023     0.09900
N42         N  0.68637621  0.83616041  0.59719160    -0.33900
N43         N  0.70304863  0.85274821  0.59723711    -0.26100
C44         C  0.71814160  0.84871093  0.57915564    -0.01400
C45         C  0.71046192  0.82870216  0.56728668     0.07300
C46         C  0.69038361  0.82109355  0.57907978     0.05400
H47         H  0.73375243  0.85927402  0.57528844     0.10500
H48         H  0.67975235  0.80554558  0.57514198     0.09300
N49         N  0.85044885  0.70547780  0.59609373    -0.25100
N50         N  0.83377512  0.68889084  0.59610986    -0.33000
C51         C  0.81830924  0.69333318  0.57844537     0.03200
C52         C  0.82574056  0.71361142  0.56688398     0.09300
C53         C  0.84606862  0.72095137  0.57841587    -0.03800
H54         H  0.80268144  0.68279013  0.57459241     0.09900
H55         H  0.85668594  0.73652325  0.57453527     0.11100
Cu56       Cu  0.83233178  0.66148364  0.62051078     0.44200
Cu57       Cu  0.87787279  0.70679236  0.62049014     0.42000
Cu58       Cu  0.87852619  0.66057997  0.66512884     0.43900
N59         N  0.83442734  0.63626952  0.64712710    -0.32500
N60         N  0.85134437  0.63592898  0.66345743    -0.26700
C61         C  0.84730354  0.61781848  0.67851830    -0.02800
C62         C  0.82694658  0.60633863  0.67117378     0.09400
C63         C  0.81914014  0.61838612  0.65132699     0.03200
H64         H  0.85812608  0.61365309  0.69386993     0.10800
H65         H  0.80333882  0.61475632  0.64096772     0.09900
N66         N  0.90326175  0.68768900  0.66350662    -0.33900
N67         N  0.90301841  0.70460680  0.64717146    -0.26100
C68         C  0.92092187  0.71985358  0.65143380    -0.01400
C69         C  0.93287977  0.71202065  0.67132525     0.07300
C70         C  0.92132622  0.69168905  0.67863062     0.05400
H71         H  0.92461670  0.73565544  0.64109451     0.10500
H72         H  0.92540198  0.68086426  0.69400585     0.09300
N73         N  0.85218895  0.90304816  0.79631127    -0.25100
N74         N  0.83566223  0.90302527  0.81304117    -0.33000
C75         C  0.82044919  0.92101244  0.80902561     0.03200
C76         C  0.82789676  0.93279388  0.78888119     0.09300
C77         C  0.84796440  0.92105068  0.78117260    -0.03800
H78         H  0.80492775  0.92488761  0.81971367     0.09900
H79         H  0.85845735  0.92496211  0.76552740     0.11100
Cu80       Cu  0.83393839  0.87806671  0.83993291     0.44200
Cu81       Cu  0.87909159  0.87813100  0.79422767     0.42000
Cu82       Cu  0.87902106  0.83231557  0.83925131     0.43900
N83         N  0.83561321  0.85076053  0.86444125    -0.32500
N84         N  0.85212010  0.83401196  0.86418821    -0.26700
C85         C  0.84790889  0.81860830  0.88196638    -0.02800
C86         C  0.82786763  0.82616105  0.89385166     0.09400
C87         C  0.82042376  0.84649186  0.88238863     0.03200
H88         H  0.85841218  0.80291275  0.88564800     0.10800
H89         H  0.80493994  0.85715842  0.88647044     0.09900
N90         N  0.90364518  0.83410311  0.81206967    -0.33900
N91         N  0.90367416  0.85087555  0.79558444    -0.26100
C92         C  0.92146946  0.84668013  0.78019745    -0.01400
C93         C  0.93306718  0.82637075  0.78748832     0.07300
C94         C  0.92141998  0.81875617  0.80764615     0.05400
H95         H  0.92536403  0.85738863  0.76469391     0.10500
H96         H  0.92526702  0.80306389  0.81809537     0.09300
O97         O  0.80210671  0.77225438  0.95525936    -0.70700
O98         O  0.76652543  0.73678734  0.00566811    -0.71700
O99         O  0.76653151  0.73671692  0.95531004    -0.60300
O100        O  0.80211501  0.77231222  0.00561737    -0.68800
O101        O  0.77417357  0.80030502  0.00558903    -0.68300
O102        O  0.73858641  0.76470629  0.95527432    -0.59600
O103        O  0.73858617  0.76478304  0.00562795    -0.72100
O104        O  0.77415798  0.80024097  0.95523528    -0.70900
Cu105      Cu  0.78531240  0.75352328  0.98046483     1.04600
Cu106      Cu  0.75538402  0.78350270  0.98043020     1.04300
C107        C  0.79364645  0.79175054  0.94732818     0.95400
C108        C  0.74703587  0.74528772  0.01356771     0.94600
C109        C  0.74704156  0.74518995  0.94738620     0.86700
C110        C  0.79366421  0.79182728  0.01351014     0.93000
O111        O  0.99432102  0.80086750  0.73338875    -0.70700
O112        O  0.04469302  0.76567472  0.69752000    -0.71700
O113        O  0.99433573  0.76563659  0.69751638    -0.60300
O114        O  0.04467495  0.80089795  0.73340001    -0.68800
O115        O  0.04468302  0.77267178  0.76110721    -0.68300
O116        O  0.99435078  0.73741395  0.72522738    -0.59600
O117        O  0.04470625  0.73744886  0.72522825    -0.72100
O118        O  0.99432805  0.77264467  0.76110019    -0.70900
Cu119      Cu  0.01950523  0.78427116  0.71447169     1.04600
Cu120      Cu  0.01951706  0.75404153  0.74414910     1.04300
C121        C  0.98641274  0.79221881  0.75280793     0.95400
C122        C  0.05261822  0.74610593  0.70581322     0.94600
C123        C  0.98643281  0.74605614  0.70580948     0.86700
C124        C  0.05258746  0.79225351  0.75282029     0.93000
O125        O  0.76592086  0.99435571  0.70012026    -0.70700
O126        O  0.80175004  0.04470240  0.73541175    -0.71700
O127        O  0.80174926  0.99433912  0.73538501    -0.60300
O128        O  0.76591871  0.04471786  0.70014535    -0.68800
O129        O  0.73817121  0.04470321  0.72832818    -0.68300
O130        O  0.77400264  0.99432342  0.76356911    -0.59600
O131        O  0.77400371  0.04468642  0.76359599    -0.72100
O132        O  0.73817325  0.99433717  0.72830328    -0.70900
Cu133      Cu  0.78482036  0.01952971  0.71676492     1.04600
Cu134      Cu  0.75510270  0.01951227  0.74695081     1.04300
C135        C  0.74649148  0.98643493  0.70873749     0.95400
C136        C  0.79343305  0.05260622  0.75497725     0.94600
C137        C  0.79343025  0.98641280  0.75494095     0.86700
C138        C  0.74648729  0.05262491  0.70876883     0.93000
N139        N  0.63589651  0.70338091  0.14804634    -0.25100
N140        N  0.63595140  0.68690462  0.16482882    -0.33000
C141        C  0.61797831  0.69113977  0.17999884     0.03200
C142        C  0.60617177  0.71116158  0.17225827     0.09300
C143        C  0.61788788  0.71857040  0.15206021    -0.03800
H144        H  0.61412836  0.68068550  0.19568595     0.09900
H145        H  0.61395281  0.73405133  0.14133247     0.11100
Cu146      Cu  0.66093340  0.66005259  0.16693570     0.44200
Cu147      Cu  0.66078542  0.70507229  0.12108225     0.42000
Cu148      Cu  0.70666434  0.66010693  0.12183757     0.43900
N149        N  0.68823243  0.63550665  0.16559093    -0.32500
N150        N  0.70497590  0.63553274  0.14907834    -0.26700
C151        C  0.72034718  0.61777619  0.15349850    -0.02800
C152        C  0.71278056  0.60614165  0.17368345     0.09400
C153        C  0.69247230  0.61773028  0.18099240     0.03200
H154        H  0.73601523  0.61392280  0.14301847     0.10800
H155        H  0.68178588  0.61383266  0.19650952     0.09900
N156        N  0.70485250  0.68693073  0.09681719    -0.33900
N157        N  0.68805777  0.70339069  0.09653171    -0.26100
C158        C  0.69226902  0.71854447  0.07853734    -0.01400
C159        C  0.71261026  0.71112644  0.06707805     0.02500
C160        C  0.72022780  0.69113781  0.07901494     0.05400
H161        H  0.68156332  0.73399506  0.07442787     0.10500
H162        H  0.73595426  0.68067436  0.07535734     0.09300
N163        N  0.70311927  0.18629041  0.59725023    -0.25100
N164        N  0.68650031  0.20293012  0.59721786    -0.33000
C165        C  0.69055407  0.21799087  0.57910895     0.03200
C166        C  0.71060549  0.21032333  0.56730553     0.09300
C167        C  0.71822048  0.19028636  0.57916569    -0.03800
H168        H  0.67997047  0.23357102  0.57517627     0.09900
H169        H  0.73379365  0.17967348  0.57528921     0.11100
Cu170      Cu  0.65973704  0.20501621  0.62229773     0.44200
Cu171      Cu  0.70514473  0.15957888  0.62237835     0.42000
Cu172      Cu  0.66040938  0.16031365  0.66846292     0.43900
N173        N  0.63533660  0.20368633  0.64972952    -0.32500
N174        N  0.63558721  0.18732675  0.66662420    -0.26700
C175        C  0.61786979  0.19173745  0.68204218    -0.02800
C176        C  0.60602576  0.21175391  0.67434908     0.09400
C177        C  0.61745166  0.21897518  0.65391767     0.03200
H178        H  0.61419005  0.18137478  0.69783055     0.10800
H179        H  0.61337611  0.23436744  0.64311521     0.09900
N180        N  0.68744013  0.13550453  0.66672535    -0.33900
N181        N  0.70381361  0.13523468  0.64984798    -0.26100
C182        C  0.71911575  0.11737434  0.65408464    -0.01400
C183        C  0.71188973  0.10598339  0.67453181     0.07300
C184        C  0.69185496  0.11782128  0.68218413     0.05400
H185        H  0.73451825  0.11329149  0.64330225     0.10500
H186        H  0.68148139  0.11415917  0.69796858     0.09300
N187        N  0.18766966  0.63599049  0.66351938    -0.25100
N188        N  0.20455811  0.63624216  0.64715728    -0.33000
C189        C  0.21981060  0.61833672  0.65139439     0.03200
C190        C  0.21200898  0.60637072  0.67129815     0.09300
C191        C  0.19169187  0.61792208  0.67863477    -0.03800
H192        H  0.23558691  0.61463692  0.64102216     0.09900
H193        H  0.18088379  0.61383376  0.69401811     0.11100
Cu194      Cu  0.20665156  0.66139393  0.62046007     0.44200
Cu195      Cu  0.16055150  0.66070283  0.66516478     0.42000
Cu196      Cu  0.16123808  0.70687733  0.62051139     0.43900
N197        N  0.20523140  0.68880877  0.59604270    -0.32500
N198        N  0.18861603  0.70545363  0.59606694    -0.26700
C199        C  0.19301183  0.72091861  0.57838470    -0.02800
C200        C  0.21328741  0.71351767  0.56680194     0.09400
C201        C  0.22067355  0.69320848  0.57834225     0.03200
H202        H  0.18244303  0.73653031  0.57453790     0.10800
H203        H  0.23626113  0.68262067  0.57445557     0.09900
N204        N  0.13610010  0.70474374  0.64720591    -0.33900
N205        N  0.13584809  0.68783093  0.66354549    -0.26100
C206        C  0.11778164  0.69183391  0.67866413    -0.01400
C207        C  0.10623410  0.71216263  0.67135179     0.07300
C208        C  0.11819760  0.71999251  0.65146038     0.05400
H209        H  0.11369289  0.68100536  0.69403387     0.10500
H210        H  0.11449901  0.73578491  0.64110880     0.09300
N211        N  0.85144193  0.63611600  0.29742496    -0.25100
N212        N  0.83458132  0.63632143  0.31381582    -0.33000
C213        C  0.81934387  0.61840092  0.30958196     0.03200
C214        C  0.82712627  0.60647292  0.28964937     0.09300
C215        C  0.84741652  0.61806195  0.28229252    -0.03800
H216        H  0.80359242  0.61466293  0.31997914     0.09900
H217        H  0.85820645  0.61400528  0.26688849     0.11100
Cu218      Cu  0.83250978  0.66142870  0.34055034     0.44200
Cu219      Cu  0.87853525  0.66086055  0.29578566     0.42000
Cu220      Cu  0.87793423  0.70692236  0.34056254     0.43900
N221        N  0.83392996  0.68881226  0.36499667    -0.32500
N222        N  0.85054631  0.70545890  0.36500138    -0.26700
C223        C  0.84613025  0.72090963  0.38269125    -0.02800
C224        C  0.82584142  0.71349629  0.39424619     0.09400
C225        C  0.81846854  0.69319583  0.38268285     0.03200
H226        H  0.85668885  0.73652525  0.38655616     0.10800
H227        H  0.80287212  0.68260739  0.38653872     0.09900
N228        N  0.90303948  0.70484725  0.31382533    -0.33900
N229        N  0.90325372  0.68797738  0.29744052    -0.26100
C230        C  0.92130251  0.69200578  0.28230692    -0.01400
C231        C  0.93288008  0.71230666  0.28965356     0.07300
C232        C  0.92095082  0.72009386  0.30958377     0.05400
H233        H  0.92536204  0.68121074  0.26690630     0.10500
H234        H  0.92468060  0.73585488  0.31997275     0.09300
O235        O  0.99446164  0.76578929  0.26345551    -0.70700
O236        O  0.04484352  0.80094925  0.22755213    -0.71700
O237        O  0.99448378  0.80099866  0.22755840    -0.60300
O238        O  0.04482596  0.76572499  0.26343200    -0.68800
O239        O  0.04477844  0.73749613  0.23572767    -0.68300
O240        O  0.99445101  0.77276223  0.19986190    -0.59600
O241        O  0.04481178  0.77272049  0.19984769    -0.72100
O242        O  0.99441674  0.73755387  0.23575788    -0.70900
Cu243      Cu  0.01965523  0.78436752  0.24648374     1.04600
Cu244      Cu  0.01961291  0.75412963  0.21681608     1.04300
C245        C  0.98651695  0.74622252  0.25517337     0.95400
C246        C  0.05274469  0.79229237  0.20813404     0.94600
C247        C  0.98655872  0.79234919  0.20814433     0.86700
C248        C  0.05271654  0.74614103  0.25513626     0.93000
N249        N  0.83566415  0.90294203  0.14790615    -0.25100
N250        N  0.85219646  0.90298181  0.16462861    -0.33000
C251        C  0.84795448  0.92097544  0.17977436     0.03200
C252        C  0.82786752  0.93269559  0.17207737     0.09300
C253        C  0.82042854  0.92090848  0.15193218    -0.03800
H254        H  0.85845515  0.92490329  0.19540984     0.09900
H255        H  0.80490537  0.92477354  0.14124358     0.11100
Cu256      Cu  0.87913590  0.87809916  0.16665944     0.44200
Cu257      Cu  0.83400065  0.87799836  0.12099687     0.42000
Cu258      Cu  0.87914124  0.83227350  0.12159616     0.43900
N259        N  0.90375617  0.85087714  0.16528594    -0.32500
N260        N  0.90375934  0.83409979  0.14880380    -0.26700
C261        C  0.92156140  0.81878465  0.15324293    -0.02800
C262        C  0.93319047  0.82642697  0.17340480     0.09400
C263        C  0.92155298  0.84671790  0.18068048     0.03200
H264        H  0.92544092  0.80309520  0.14280157     0.10800
H265        H  0.92542115  0.85743872  0.19618209     0.09900
N266        N  0.85223104  0.83400374  0.09664656    -0.33900
N267        N  0.83571556  0.85074565  0.09643146    -0.26100
C268        C  0.82052378  0.84651176  0.07847842    -0.01400
C269        C  0.82796803  0.82621013  0.06696598     0.07300
C270        C  0.84801749  0.81863747  0.07883253     0.05400
H271        H  0.80503100  0.85717816  0.07443090     0.10500
H272        H  0.85851972  0.80294916  0.07511713     0.09300
N273        N  0.70377744  0.90374837  0.31113491    -0.25100
N274        N  0.68743271  0.90346608  0.29422934    -0.33000
C275        C  0.69186683  0.92115303  0.27877812     0.03200
C276        C  0.71188278  0.93300566  0.28646436     0.09300
C277        C  0.71907759  0.92161911  0.30692394    -0.03800
H278        H  0.68152025  0.92480731  0.26297489     0.09900
H279        H  0.73446060  0.92571024  0.31773125     0.11100
Cu280      Cu  0.66040917  0.87863846  0.29244087     0.44200
Cu281      Cu  0.70509289  0.87940537  0.33860741     0.42000
Cu282      Cu  0.65968796  0.83397933  0.33862968     0.43900
N283        N  0.63557906  0.85161970  0.29427564    -0.32500
N284        N  0.63531560  0.83528103  0.31118974    -0.26700
C285        C  0.61743241  0.81998613  0.30701724    -0.02800
C286        C  0.60601728  0.82717898  0.28657379     0.09400
C287        C  0.61786658  0.84718723  0.27885677     0.03200
H288        H  0.61334858  0.80461108  0.31784216     0.10800
H289        H  0.61418959  0.85753189  0.26305660     0.09900
N290        N  0.68643013  0.83603506  0.36371485    -0.33900
N291        N  0.70305646  0.85266894  0.36370898    -0.26100
C292        C  0.71814797  0.84864164  0.38179343    -0.01400
C293        C  0.71051431  0.82859072  0.39362105     0.07300
C294        C  0.69046564  0.82094783  0.38180236     0.05400
H295        H  0.73372499  0.85924284  0.38569225     0.10500
H296        H  0.67987075  0.80536719  0.38570944     0.09300
O297        O  0.80174454  0.99428271  0.22554124    -0.70700
O298        O  0.76592413  0.04465631  0.26080812    -0.71700
O299        O  0.76593407  0.99428837  0.26083213    -0.60300
O300        O  0.80172981  0.04465806  0.22551018    -0.68800
O301        O  0.77396363  0.04463168  0.19734754    -0.68300
O302        O  0.73817045  0.99426760  0.23266677    -0.59600
O303        O  0.73815761  0.04463648  0.23264563    -0.72100
O304        O  0.77398030  0.99425772  0.19737626    -0.70900
Cu305      Cu  0.78482042  0.01947218  0.24417212     1.04600
Cu306      Cu  0.75508361  0.01944741  0.21400779     1.04300
C307        C  0.79341305  0.98634757  0.20599424     0.95400
C308        C  0.74648500  0.05256038  0.25219968     0.94600
C309        C  0.74649889  0.98636536  0.25222789     0.86700
C310        C  0.79339179  0.05256666  0.20595466     0.93000
N311        N  0.33523334  0.90374130  0.64991115    -0.25100
N312        N  0.35162573  0.90350721  0.66677033    -0.33000
C313        C  0.34720638  0.92120029  0.68221706     0.03200
C314        C  0.32714913  0.93300733  0.67457586     0.09300
C315        C  0.31991476  0.92158783  0.65414764    -0.03800
H316        H  0.35759466  0.92489218  0.69798457     0.09900
H317        H  0.30449831  0.92564476  0.64337588     0.11100
Cu318      Cu  0.37869250  0.87873525  0.66849763     0.44200
Cu319      Cu  0.33390745  0.87937817  0.62245738     0.42000
Cu320      Cu  0.37939999  0.83404059  0.62232144     0.43900
N321        N  0.40353118  0.85173654  0.66665031    -0.32500
N322        N  0.40379167  0.83538381  0.64974922    -0.26700
C323        C  0.42167303  0.82009306  0.65393737    -0.02800
C324        C  0.43308706  0.82730463  0.67437614     0.09400
C325        C  0.42124094  0.84731839  0.68207424     0.03200
H326        H  0.42574952  0.80470224  0.64313288     0.10800
H327        H  0.42491015  0.85767003  0.69787222     0.09900
N328        N  0.35262070  0.83607570  0.59726665    -0.33900
N329        N  0.33596498  0.85267798  0.59731952    -0.26100
C330        C  0.32086155  0.84865635  0.57924367    -0.01400
C331        C  0.32851479  0.82864169  0.56737026     0.07300
C332        C  0.34859031  0.82101355  0.57915481     0.05400
H333        H  0.30526424  0.85923812  0.57537968     0.10500
H334        H  0.35920832  0.80546064  0.57520631     0.09300
O335        O  0.26503213  0.04468496  0.76359900    -0.70700
O336        O  0.30086321  0.99429807  0.72835631    -0.71700
O337        O  0.30087716  0.04466567  0.72834099    -0.60300
O338        O  0.26502249  0.99431633  0.76361384    -0.68800
O339        O  0.23728395  0.99431105  0.73542312    -0.68300
O340        O  0.27313921  0.04466164  0.70015005    -0.59600
O341        O  0.27312458  0.99429612  0.70016590    -0.72100
O342        O  0.23729453  0.04468085  0.73540774    -0.70900
Cu343      Cu  0.28393276  0.01949156  0.74697960     1.04600
Cu344      Cu  0.25422478  0.01948743  0.71678610     1.04300
C345        C  0.24560911  0.05260360  0.75496720     0.95400
C346        C  0.29255052  0.98638084  0.70879374     0.94600
C347        C  0.29257009  0.05257365  0.70877294     0.86700
C348        C  0.24559711  0.98639731  0.75498628     0.93000
N349        N  0.18694038  0.83396981  0.86426125    -0.25100
N350        N  0.20340831  0.85075999  0.86452097    -0.33000
C351        C  0.21860663  0.84652839  0.88246878     0.03200
C352        C  0.21121588  0.82617729  0.89393062     0.09300
C353        C  0.19119136  0.81857395  0.88203994    -0.03800
H354        H  0.23406386  0.85723523  0.88655140     0.09900
H355        H  0.18072614  0.80285124  0.88572078     0.11100
Cu356      Cu  0.20504486  0.87807686  0.84002107     0.44200
Cu357      Cu  0.16003048  0.83223172  0.83931337     0.42000
Cu358      Cu  0.15992565  0.87811811  0.79432390     0.43900
N359        N  0.20334421  0.90303130  0.81312410    -0.32500
N360        N  0.18682469  0.90304384  0.79638857    -0.26700
C361        C  0.19105780  0.92103665  0.78123954    -0.02800
C362        C  0.21112451  0.93278530  0.78894767     0.09400
C363        C  0.21856209  0.92101590  0.80910289     0.03200
H364        H  0.18057109  0.92493838  0.76558847     0.10800
H365        H  0.23407993  0.92489726  0.81979419     0.09900
N366        N  0.13534833  0.85085408  0.79567267    -0.33900
N367        N  0.13538597  0.83405459  0.81213177    -0.26100
C368        C  0.11760367  0.81871582  0.80768906    -0.01400
C369        C  0.10594486  0.82636488  0.78754830     0.07300
C370        C  0.11754398  0.84668544  0.78028847     0.05400
H371        H  0.11375764  0.80300635  0.81811358     0.10500
H372        H  0.11364440  0.85742079  0.76480524     0.09300
N373        N  0.35095194  0.63546956  0.79535294    -0.25100
N374        N  0.33420344  0.63546176  0.81186033    -0.33000
C375        C  0.31886032  0.61768300  0.80742539     0.03200
C376        C  0.32645291  0.60607250  0.78723707     0.09300
C377        C  0.34674504  0.61769572  0.77994091    -0.03800
H378        H  0.30318958  0.61380352  0.81789259     0.09900
H379        H  0.35743852  0.61382841  0.76442139     0.11100
Cu380      Cu  0.33245944  0.66003119  0.83910165     0.44200
Cu381      Cu  0.37820579  0.66005724  0.79401102     0.42000
Cu382      Cu  0.37826563  0.70507357  0.83984526     0.43900
N383        N  0.33422927  0.68686820  0.86411115    -0.32500
N384        N  0.35099992  0.70335481  0.86438776    -0.26700
C385        C  0.34677707  0.71850493  0.88238004    -0.02800
C386        C  0.32645311  0.71105724  0.89384880     0.09400
C387        C  0.31885612  0.69105493  0.88191941     0.03200
H388        H  0.35746636  0.73396980  0.88648469     0.10800
H389        H  0.30314830  0.68056551  0.88558939     0.09900
N390        N  0.40317282  0.70341249  0.81290913    -0.33900
N391        N  0.40315074  0.68693506  0.79612874    -0.26100
C392        C  0.42113033  0.69119066  0.78097365    -0.01400
C393        C  0.43290464  0.71122723  0.78872522     0.07300
C394        C  0.42116575  0.71862441  0.80891116     0.05400
H395        H  0.42500531  0.68074076  0.76529012     0.10500
H396        H  0.42507344  0.73411186  0.81964045     0.09300
O397        O  0.23701316  0.77225444  0.00565995    -0.70700
O398        O  0.27256714  0.73673472  0.95527501    -0.71700
O399        O  0.27254812  0.73667936  0.00563392    -0.60300
O400        O  0.23702336  0.77229455  0.95529913    -0.68800
O401        O  0.26499674  0.80025921  0.95532636    -0.68300
O402        O  0.30052506  0.76464031  0.00567036    -0.59600
O403        O  0.30053990  0.76470128  0.95531411    -0.72100
O404        O  0.26499310  0.80021339  0.00568419    -0.70900
Cu405      Cu  0.25379431  0.75349754  0.98046593     1.04600
Cu406      Cu  0.28375713  0.78344648  0.98050028     1.04300
C407        C  0.24549287  0.79174436  0.01358898     0.95400
C408        C  0.29206701  0.74521393  0.94737659     0.94600
C409        C  0.29204469  0.74513533  0.01356343     0.86700
C410        C  0.24550028  0.79179685  0.94739978     0.93000
N411        N  0.90322483  0.35144018  0.66358696    -0.25100
N412        N  0.90294684  0.33447516  0.64730098    -0.33000
C413        C  0.92083083  0.31921690  0.65159719     0.03200
C414        C  0.93281300  0.32709055  0.67145933     0.09300
C415        C  0.92129315  0.34745939  0.67871206    -0.03800
H416        H  0.92450328  0.30338650  0.64129443     0.09900
H417        H  0.92539992  0.35832861  0.69404803     0.11100
Cu418      Cu  0.87780066  0.33226531  0.62061818     0.44200
Cu419      Cu  0.87853653  0.37859806  0.66513335     0.42000
Cu420      Cu  0.83236715  0.37768570  0.62049074     0.43900
N421        N  0.85041635  0.33360366  0.59617459    -0.32500
N422        N  0.83378559  0.35023180  0.59613360    -0.26700
C423        C  0.81834572  0.34580304  0.57844131    -0.02800
C424        C  0.82574863  0.32549107  0.56692091     0.09400
C425        C  0.84603352  0.31811760  0.57850683     0.03200
H426        H  0.80275598  0.35638161  0.57453846     0.10800
H427        H  0.85662240  0.30251822  0.57466543     0.09900
N428        N  0.83447114  0.40293290  0.64708222    -0.33900
N429        N  0.85138107  0.40327660  0.66342015    -0.26100
C430        C  0.84733888  0.42139386  0.67847292    -0.01400
C431        C  0.82698828  0.43287628  0.67111692     0.07300
C432        C  0.81918752  0.42082147  0.65127000     0.05400
H433        H  0.85814957  0.42555534  0.69383437     0.10500
H434        H  0.80338588  0.42444346  0.64090922     0.09300
O435        O  0.04466966  0.23819716  0.73338088    -0.70700
O436        O  0.99430788  0.27350805  0.69757717    -0.71700
O437        O  0.04467006  0.27347569  0.69755036    -0.60300
O438        O  0.99430942  0.23822443  0.73339863    -0.68800
O439        O  0.99433499  0.26640809  0.76114926    -0.68300
O440        O  0.04470051  0.30166169  0.72529849    -0.59600
O441        O  0.99433938  0.30169181  0.72532721    -0.72100
O442        O  0.04469599  0.26638335  0.76112816    -0.70900
Cu443      Cu  0.01948823  0.25485091  0.71449096     1.04600
Cu444      Cu  0.01951898  0.28503777  0.74421062     1.04300
C445        C  0.05259536  0.24681397  0.75280879     0.95400
C446        C  0.98640694  0.29307449  0.70590322     0.94600
C447        C  0.05260180  0.29303387  0.70586621     0.86700
C448        C  0.98640824  0.24684767  0.75283205     0.93000
N449        N  0.90362572  0.18820056  0.79558632    -0.25100
N450        N  0.90354550  0.20502299  0.81202110    -0.33000
C451        C  0.92131214  0.22037919  0.80758407     0.03200
C452        C  0.93300797  0.21271919  0.78747104     0.09300
C453        C  0.92144610  0.19237277  0.78022035    -0.03800
H454        H  0.92512720  0.23610300  0.81799838     0.09900
H455        H  0.92538709  0.18161793  0.76476102     0.11100
Cu456      Cu  0.87888407  0.20684516  0.83917413     0.44200
Cu457      Cu  0.87908903  0.16089483  0.79427250     0.42000
Cu458      Cu  0.83394914  0.16094379  0.83998714     0.43900
N459        N  0.85199183  0.20512382  0.86412753    -0.32500
N460        N  0.83554591  0.18831363  0.86443289    -0.26700
C461        C  0.82035821  0.19256283  0.88238670    -0.02800
C462        C  0.82773740  0.21294644  0.89380045     0.09400
C463        C  0.84774063  0.22054921  0.88187825     0.03200
H464        H  0.80492192  0.18184161  0.88651071     0.10800
H465        H  0.85819639  0.23628643  0.88552334     0.09900
N466        N  0.83569609  0.13595665  0.81312132    -0.33900
N467        N  0.85221598  0.13594133  0.79638464    -0.26100
C468        C  0.84799196  0.11793488  0.78124908    -0.01400
C469        C  0.82793194  0.10618077  0.78896672     0.07300
C470        C  0.82048852  0.11796059  0.80911338     0.05400
H471        H  0.85847279  0.11403523  0.76559322     0.10500
H472        H  0.80496560  0.11408636  0.81980046     0.09300
N473        N  0.63608437  0.35212367  0.79602804    -0.25100
N474        N  0.63607884  0.33564092  0.81280219    -0.33000
C475        C  0.61810678  0.32040629  0.80879046     0.03200
C476        C  0.60636711  0.32779675  0.78860060     0.09300
C477        C  0.61811814  0.34785149  0.78086355    -0.03800
H478        H  0.61420231  0.30492028  0.81952299     0.09900
H479        H  0.61422564  0.35831412  0.76519300     0.11100
Cu480      Cu  0.66096253  0.33405493  0.83976911     0.44200
Cu481      Cu  0.66096680  0.37905543  0.79395861     0.42000
Cu482      Cu  0.70660181  0.37930092  0.83917695     0.43900
N483        N  0.68816109  0.33587843  0.86438398    -0.32500
N484        N  0.70486334  0.35243656  0.86417432    -0.26700
C485        C  0.72020615  0.34828621  0.88201998    -0.02800
C486        C  0.71266016  0.32823337  0.89390253     0.09400
C487        C  0.69239926  0.32072053  0.88236593     0.03200
H488        H  0.73586634  0.35882852  0.88574071     0.10800
H489        H  0.68176773  0.30520096  0.88641379     0.09900
N490        N  0.70484869  0.40381778  0.81187599    -0.33900
N491        N  0.68814174  0.40372070  0.79532682    -0.26100
C492        C  0.69233788  0.42146056  0.77987401    -0.01400
C493        C  0.71258020  0.43315831  0.78718335     0.07300
C494        C  0.72015540  0.42162570  0.80742468     0.05400
H495        H  0.68167554  0.42524938  0.76431410     0.10500
H496        H  0.73579536  0.42557236  0.81791217     0.09300
O497        O  0.77404700  0.23888683  0.95523313    -0.70700
O498        O  0.73857159  0.27442167  0.00565249    -0.71700
O499        O  0.73853992  0.27448236  0.95529472    -0.60300
O500        O  0.77408850  0.23883151  0.00559273    -0.68800
O501        O  0.80208382  0.26677396  0.00560275    -0.68300
O502        O  0.76653576  0.30242470  0.95530552    -0.59600
O503        O  0.76656460  0.30236684  0.00566729    -0.72100
O504        O  0.80204550  0.26682672  0.95523936    -0.70900
Cu505      Cu  0.75531787  0.25566358  0.98044293     1.04600
Cu506      Cu  0.78530190  0.28559044  0.98045423     1.04300
C507        C  0.79354527  0.24734558  0.94731093     0.95400
C508        C  0.74706466  0.29390378  0.01358386     0.94600
C509        C  0.74702660  0.29398068  0.94739398     0.86700
C510        C  0.79359867  0.24727543  0.01350395     0.93000
N511        N  0.70501411  0.40378838  0.14907412    -0.25100
N512        N  0.68827457  0.40379313  0.16559237    -0.33000
C513        C  0.69250329  0.42157088  0.18099680     0.03200
C514        C  0.71279915  0.43318334  0.17368697     0.09300
C515        C  0.72037024  0.42156101  0.15349626    -0.03800
H516        H  0.68182137  0.42544926  0.19652142     0.09900
H517        H  0.73603556  0.42542986  0.14301707     0.11100
Cu518      Cu  0.66100118  0.37920981  0.16697136     0.44200
Cu519      Cu  0.70674196  0.37921224  0.12182842     0.42000
Cu520      Cu  0.66095097  0.33416646  0.12116630     0.43900
N521        N  0.63607385  0.35229425  0.16490084    -0.32500
N522        N  0.63606014  0.33580790  0.14812856    -0.26700
C523        C  0.61808872  0.32057388  0.15214748    -0.02800
C524        C  0.60635151  0.32796084  0.17233994     0.09400
C525        C  0.61810820  0.34801973  0.18007156     0.03200
H526        H  0.61419051  0.30508026  0.14142370     0.10800
H527        H  0.61422679  0.35847531  0.19574969     0.09900
N528        N  0.68819623  0.33586265  0.09658941    -0.33900
N529        N  0.70496534  0.35235148  0.09683526    -0.26100
C530        C  0.72032789  0.34814364  0.07902054    -0.01400
C531        C  0.71272653  0.32812436  0.06711842     0.07300
C532        C  0.69240946  0.32069107  0.07861146     0.05400
H533        H  0.73603320  0.35862908  0.07532873     0.10500
H534        H  0.68171974  0.30521935  0.07453407     0.09300
N535        N  0.33409320  0.63531845  0.14917005    -0.25100
N536        N  0.35082719  0.63537845  0.16569305    -0.33000
C537        C  0.34663654  0.61762097  0.18112978     0.03200
C538        C  0.32636989  0.60595005  0.17383839     0.09300
C539        C  0.31877603  0.61751878  0.15362354    -0.03800
H540        H  0.35732800  0.61379229  0.19665987     0.09900
H541        H  0.30312457  0.61359128  0.14314610     0.11100
Cu542      Cu  0.37805644  0.65999859  0.16702632     0.44200
Cu543      Cu  0.33234258  0.65984078  0.12186623     0.42000
Cu544      Cu  0.37814413  0.70490904  0.12112053     0.43900
N545        N  0.40298908  0.68689113  0.16490471    -0.32500
N546        N  0.40302516  0.70333524  0.14809224    -0.26700
C547        C  0.42101053  0.71856090  0.15208128    -0.02800
C548        C  0.43272951  0.71120724  0.17229676     0.09400
C549        C  0.42095033  0.69118167  0.18007189     0.03200
H550        H  0.42493237  0.73402284  0.14132039     0.10800
H551        H  0.42481626  0.68075676  0.19577405     0.09900
N552        N  0.35090285  0.70314856  0.09654720    -0.33900
N553        N  0.33413257  0.68666022  0.09681649    -0.26100
C554        C  0.31877306  0.69084644  0.07899230    -0.01400
C555        C  0.32637918  0.71084988  0.06706211     0.07300
C556        C  0.34669351  0.71829528  0.07854864     0.05400
H557        H  0.30306215  0.68036337  0.07531799     0.10500
H558        H  0.35738053  0.73376535  0.07445755     0.09300
N559        N  0.63547923  0.20375334  0.31115998    -0.25100
N560        N  0.63572267  0.18741583  0.29424497    -0.33000
C561        C  0.61800117  0.19185513  0.27883871     0.03200
C562        C  0.60616616  0.21186701  0.28656594     0.09300
C563        C  0.61760006  0.21905439  0.30700172    -0.03800
H564        H  0.61430465  0.18150935  0.26304337     0.09900
H565        H  0.61352831  0.23442715  0.31783371     0.11100
Cu566      Cu  0.66053094  0.16038111  0.29241281     0.44200
Cu567      Cu  0.65986646  0.20503010  0.33858862     0.42000
Cu568      Cu  0.70520838  0.15954235  0.33860672     0.43900
N569        N  0.68751654  0.13551783  0.29421269    -0.32500
N570        N  0.70385628  0.13520532  0.31112323    -0.26700
C571        C  0.71912659  0.11731102  0.30690885    -0.02800
C572        C  0.71191650  0.10594202  0.28644318     0.09400
C573        C  0.69192371  0.11782900  0.27875695     0.03200
H574        H  0.73450110  0.11319253  0.31771711     0.10800
H575        H  0.68157510  0.11419715  0.26294946     0.09900
N576        N  0.70319984  0.18629703  0.36369876    -0.33900
N577        N  0.68659667  0.20295199  0.36368541    -0.26100
C578        C  0.69064228  0.21804570  0.38176584    -0.01400
C579        C  0.71067371  0.21038743  0.39360187     0.07300
C580        C  0.71828670  0.19031844  0.38179041     0.05400
H581        H  0.68006559  0.23364120  0.38565687     0.10500
H582        H  0.73384706  0.17970100  0.38570526     0.09300
N583        N  0.33531319  0.13532993  0.31123818    -0.25100
N584        N  0.35164006  0.13564304  0.29431600    -0.33000
C585        C  0.34720298  0.11797423  0.27884555     0.03200
C586        C  0.32720221  0.10609833  0.28653414     0.09300
C587        C  0.32001938  0.11745429  0.30701763    -0.03800
H588        H  0.35753976  0.11434551  0.26302959     0.09900
H589        H  0.30465136  0.11333640  0.31783661     0.11100
Cu590      Cu  0.37864838  0.16048331  0.29253941     0.44200
Cu591      Cu  0.33403577  0.15964591  0.33874444     0.42000
Cu592      Cu  0.37945646  0.20510002  0.33877641     0.43900
N593        N  0.40349329  0.18748535  0.29435938    -0.32500
N594        N  0.40379812  0.20381241  0.31128477    -0.26700
C595        C  0.42169253  0.21909179  0.30708710    -0.02800
C596        C  0.43306833  0.21189894  0.28661664     0.09400
C597        C  0.42118410  0.19190782  0.27891241     0.03200
H598        H  0.42581400  0.23445442  0.31791527     0.10800
H599        H  0.42482547  0.18156451  0.26310281     0.09900
N600        N  0.35271437  0.20300708  0.36388512    -0.33900
N601        N  0.33609326  0.18636619  0.36387086    -0.26100
C602        C  0.32099976  0.19037616  0.38195956    -0.01400
C603        C  0.32862063  0.21042289  0.39380368     0.07300
C604        C  0.34866873  0.21808086  0.38198566     0.05400
H605        H  0.30542300  0.17976987  0.38584580     0.10500
H606        H  0.35925152  0.23366815  0.38589850     0.09300
N607        N  0.20354859  0.90309164  0.14785656    -0.25100
N608        N  0.18703446  0.90312070  0.16459967    -0.33000
C609        C  0.19126736  0.92113963  0.17971958     0.03200
C610        C  0.21132630  0.93288817  0.17198607     0.09300
C611        C  0.21875971  0.92109022  0.15184532    -0.03800
H612        H  0.18078356  0.92506228  0.19536768     0.09900
H613        H  0.23426931  0.92496489  0.14113915     0.11100
Cu614      Cu  0.16012605  0.87819487  0.16671637     0.44200
Cu615      Cu  0.20525534  0.87811569  0.12097350     0.42000
Cu616      Cu  0.16016925  0.83236815  0.12169158     0.43900
N617        N  0.13553443  0.85093080  0.16537262    -0.32500
N618        N  0.13555567  0.83415881  0.14888613    -0.26700
C619        C  0.11777758  0.81881277  0.15331158    -0.02800
C620        C  0.10613378  0.82642428  0.17347239     0.09400
C621        C  0.11773907  0.84673381  0.18076233     0.03200
H622        H  0.11392299  0.80312434  0.14285846     0.10800
H623        H  0.11384591  0.85744391  0.19626478     0.09900
N624        N  0.18706026  0.83404946  0.09673894    -0.33900
N625        N  0.20356909  0.85079834  0.09647169    -0.26100
C626        C  0.21874992  0.84652189  0.07851847    -0.01400
C627        C  0.21129924  0.82618543  0.06706634     0.07300
C628        C  0.19126212  0.81863781  0.07896503     0.05400
H629        H  0.23423293  0.85718723  0.07442493     0.10500
H630        H  0.18075508  0.80294058  0.07529475     0.09300
N631        N  0.40373243  0.83540925  0.31122665    -0.25100
N632        N  0.40346167  0.85172972  0.29429497    -0.33000
C633        C  0.42115999  0.84727822  0.27886522     0.03200
C634        C  0.43300955  0.82727567  0.28659151     0.09300
C635        C  0.42160801  0.82010661  0.30705338    -0.03800
H636        H  0.42482522  0.85760462  0.26304984     0.09900
H637        H  0.42569443  0.80474044  0.31788901     0.11100
Cu638      Cu  0.37863414  0.87874436  0.29244535     0.44200
Cu639      Cu  0.37936877  0.83414095  0.33868630     0.42000
Cu640      Cu  0.33394509  0.87954965  0.33860863     0.43900
N641        N  0.35161273  0.90357035  0.29420783    -0.32500
N642        N  0.33526339  0.90386775  0.31110927    -0.26700
C643        C  0.31997494  0.92174371  0.30688401    -0.02800
C644        C  0.32718317  0.93311679  0.28641976     0.09400
C645        C  0.34719415  0.92125104  0.27874615     0.03200
H646        H  0.30459591  0.92585336  0.31768974     0.10800
H647        H  0.35755297  0.92489740  0.26294844     0.09900
N648        N  0.33599102  0.85284512  0.36374817    -0.33900
N649        N  0.35262287  0.83621863  0.36377686    -0.26100
C650        C  0.34858272  0.82114799  0.38187948    -0.01400
C651        C  0.32852552  0.82879345  0.39368458     0.07300
C652        C  0.32089284  0.84882926  0.38183152     0.05400
H653        H  0.35917555  0.80557133  0.38580164     0.10500
H654        H  0.30530694  0.85942336  0.38570822     0.09300
O655        O  0.30098270  0.04483328  0.23269016    -0.70700
O656        O  0.26519999  0.99448043  0.19732717    -0.71700
O657        O  0.26520007  0.04485705  0.19736690    -0.60300
O658        O  0.30098432  0.99445834  0.23264905    -0.68800
O659        O  0.27319794  0.99443563  0.26079252    -0.68300
O660        O  0.23741548  0.04483197  0.22551220    -0.59600
O661        O  0.23741619  0.99445823  0.22547312    -0.72100
O662        O  0.27319601  0.04480648  0.26083314    -0.70900
Cu663      Cu  0.28407781  0.01965822  0.21400789     1.04600
Cu664      Cu  0.25431937  0.01963221  0.24415108     1.04300
C665        C  0.29263771  0.05273234  0.25224681     0.95400
C666        C  0.24576235  0.98655140  0.20592072     0.94600
C667        C  0.24576189  0.05276912  0.20597170     0.86700
C668        C  0.29263996  0.98652730  0.25219312     0.93000
N669        N  0.33590335  0.18642818  0.59744095    -0.25100
N670        N  0.35256918  0.20302207  0.59741582    -0.33000
C671        C  0.34855476  0.21811569  0.57932872     0.03200
C672        C  0.32847691  0.21052020  0.56752868     0.09300
C673        C  0.32080536  0.19048909  0.57936835    -0.03800
H674        H  0.35919038  0.23366397  0.57540344     0.09900
H675        H  0.30520631  0.17991743  0.57547756     0.11100
Cu676      Cu  0.37934834  0.20500245  0.62246522     0.44200
Cu677      Cu  0.33386250  0.15967738  0.62253313     0.42000
Cu678      Cu  0.37870927  0.16025356  0.66856553     0.43900
N679        N  0.40375374  0.20365648  0.64987126    -0.32500
N680        N  0.40352216  0.18728499  0.66675387    -0.26700
C681        C  0.42123956  0.19170901  0.68216918    -0.02800
C682        C  0.43305787  0.21174613  0.67448106     0.09400
C683        C  0.42162082  0.21896431  0.65405998     0.03200
H684        H  0.42493566  0.18134323  0.69795112     0.10800
H685        H  0.42567406  0.23436904  0.64326563     0.09900
N686        N  0.35165099  0.13546787  0.66678739    -0.33900
N687        N  0.33524331  0.13525941  0.64994132    -0.26100
C688        C  0.31993373  0.11739792  0.65415808    -0.01400
C689        C  0.32718884  0.10594158  0.67455768     0.07300
C690        C  0.34724923  0.11774295  0.68220377     0.05400
H691        H  0.30450409  0.11336034  0.64339721     0.10500
H692        H  0.35764669  0.11403093  0.69796005     0.09300
N693        N  0.18763629  0.40323133  0.66360431    -0.25100
N694        N  0.20455384  0.40294760  0.64727212    -0.33000
C695        C  0.21980792  0.42085322  0.65150648     0.03200
C696        C  0.21197848  0.43285334  0.67137617     0.09300
C697        C  0.19164274  0.42132251  0.67869777    -0.03800
H698        H  0.23560339  0.42453103  0.64115473     0.09900
H699        H  0.18081080  0.42544056  0.69405597     0.11100
Cu700      Cu  0.20669300  0.37776847  0.62060780     0.44200
Cu701      Cu  0.16049772  0.37853452  0.66524513     0.42000
Cu702      Cu  0.16125416  0.33233114  0.62062179     0.43900
N703        N  0.20529045  0.35035328  0.59619272    -0.32500
N704        N  0.18865830  0.33372338  0.59619936    -0.26700
C705        C  0.19305154  0.31826137  0.57851378    -0.02800
C706        C  0.21334371  0.32564849  0.56694760     0.09400
C707        C  0.22074171  0.34594708  0.57850192     0.03200
H708        H  0.18246553  0.30266437  0.57464877     0.10800
H709        H  0.23633810  0.35652812  0.57462551     0.09900
N710        N  0.13608391  0.33446800  0.64729049    -0.33900
N711        N  0.13580501  0.35139088  0.66361944    -0.26100
C712        C  0.11772918  0.34737953  0.67872654    -0.01400
C713        C  0.10620289  0.32703465  0.67141804     0.07300
C714        C  0.11818984  0.31920494  0.65154053     0.05400
H715        H  0.11362211  0.35821124  0.69408877     0.10500
H716        H  0.11451512  0.30340058  0.64119799     0.09300
N717        N  0.18766214  0.40302967  0.29750316    -0.25100
N718        N  0.20454936  0.40274743  0.31386531    -0.33000
C719        C  0.21981374  0.42065106  0.30965895     0.03200
C720        C  0.21202368  0.43265096  0.28977400     0.09300
C721        C  0.19169916  0.42112030  0.28241599    -0.03800
H722        H  0.23558982  0.42432745  0.32004031     0.09900
H723        H  0.18089528  0.42523975  0.26703884     0.11100
Cu724      Cu  0.20662920  0.37756639  0.34052544     0.44200
Cu725      Cu  0.16052112  0.37832888  0.29583805     0.42000
Cu726      Cu  0.16116936  0.33213837  0.34050796     0.43900
N727        N  0.20521354  0.35015003  0.36493034    -0.32500
N728        N  0.18858038  0.33352089  0.36492935    -0.26700
C729        C  0.19298311  0.31805842  0.38261355    -0.02800
C730        C  0.21328234  0.32544752  0.39416844     0.09400
C731        C  0.22067267  0.34574488  0.38261188     0.03200
H732        H  0.18239936  0.30246153  0.38648542     0.10800
H733        H  0.23626998  0.35632718  0.38648052     0.09900
N734        N  0.13601989  0.33430770  0.31381630    -0.33900
N735        N  0.13578236  0.35121955  0.29747426    -0.26100
C736        C  0.11770493  0.34723158  0.28236202    -0.01400
C737        C  0.10613363  0.32691404  0.28967881     0.07300
C738        C  0.11809759  0.31907621  0.30956757     0.05400
H739        H  0.11362590  0.35806081  0.26699082     0.10500
H740        H  0.11438715  0.30328636  0.31991957     0.09300
N741        N  0.90358630  0.20494254  0.14882627    -0.25100
N742        N  0.90358214  0.18818052  0.16532325    -0.33000
C743        C  0.92137698  0.19236061  0.18071676     0.03200
C744        C  0.93301336  0.21264903  0.17342175     0.09300
C745        C  0.92138517  0.22026693  0.15325175    -0.03800
H746        H  0.92524956  0.18165214  0.19622539     0.09900
H747        H  0.92526614  0.23594446  0.14279211     0.11100
Cu748      Cu  0.87897086  0.16094171  0.16668181     0.44200
Cu749      Cu  0.87897845  0.20673213  0.12161169     0.42000
Cu750      Cu  0.83388040  0.16096614  0.12093119     0.43900
N751        N  0.85206999  0.13601321  0.16459339    -0.32500
N752        N  0.83556275  0.13601876  0.14784476    -0.26700
C753        C  0.82035636  0.11801897  0.15184942    -0.02800
C754        C  0.82778820  0.10624662  0.17200671     0.09400
C755        C  0.84783974  0.11801057  0.17973233     0.03200
H756        H  0.80485463  0.11412294  0.14114001     0.10800
H757        H  0.85832340  0.11410656  0.19538485     0.09900
N758        N  0.83558269  0.18825550  0.09639597    -0.33900
N759        N  0.85208770  0.20500960  0.09664495    -0.26100
C760        C  0.84787948  0.22039798  0.07884996    -0.01400
C761        C  0.82784346  0.21282969  0.06695781     0.07300
C762        C  0.82040119  0.19250561  0.07843706     0.05400
H763        H  0.85837756  0.23609755  0.07516381     0.10500
H764        H  0.80491812  0.18183363  0.07436132     0.09300
N765        N  0.90306411  0.35125055  0.29731400    -0.25100
N766        N  0.90279439  0.33434904  0.31366429    -0.33000
C767        C  0.92066806  0.31906613  0.30940899     0.03200
C768        C  0.93263335  0.32685987  0.28950375     0.09300
C769        C  0.92111500  0.34720564  0.28218585    -0.03800
H770        H  0.92435611  0.30328408  0.31977991     0.09900
H771        H  0.92522395  0.35802735  0.26681669     0.11100
Cu772      Cu  0.87768765  0.33230441  0.34039541     0.44200
Cu773      Cu  0.87841893  0.37843997  0.29573926     0.42000
Cu774      Cu  0.83241364  0.37792522  0.34059023     0.43900
N775        N  0.85036624  0.33378710  0.36489969    -0.32500
N776        N  0.83379880  0.35047962  0.36498094    -0.26700
C777        C  0.81837637  0.34609360  0.38270372    -0.02800
C778        C  0.82572736  0.32574373  0.39419802     0.09400
C779        C  0.84596000  0.31830639  0.38256490     0.03200
H780        H  0.80282246  0.35671510  0.38663312     0.10800
H781        H  0.85648908  0.30265585  0.38636262     0.09900
N782        N  0.83453773  0.40305886  0.31387286    -0.33900
N783        N  0.85138217  0.40324223  0.29746319    -0.26100
C784        C  0.84737696  0.42131250  0.28234530    -0.01400
C785        C  0.82711875  0.43293716  0.28972812     0.07300
C786        C  0.81933255  0.42101170  0.30966256     0.05400
H787        H  0.85815173  0.42534896  0.26692495     0.10500
H788        H  0.80359227  0.42476648  0.32006975     0.09300
O789        O  0.99424507  0.30156123  0.23572596    -0.70700
O790        O  0.04466993  0.26638051  0.19989081    -0.71700
O791        O  0.99430541  0.26634049  0.19984338    -0.60300
O792        O  0.04461172  0.30160269  0.23577892    -0.68800
O793        O  0.04460347  0.27337304  0.26348159    -0.68300
O794        O  0.99429855  0.23811124  0.22754669    -0.59600
O795        O  0.04466323  0.23815007  0.22759272    -0.72100
O796        O  0.99423466  0.27333270  0.26343019    -0.70900
Cu797      Cu  0.01945869  0.28497455  0.21682713     1.04600
Cu798      Cu  0.01945018  0.25474001  0.24649717     1.04300
C799        C  0.98630900  0.29289933  0.25512907     0.95400
C800        C  0.05258924  0.24680759  0.20818294     0.94600
C801        C  0.98639497  0.24675764  0.20812394     0.86700
C802        C  0.05251794  0.29295354  0.25519975     0.93000
N803        N  0.18773841  0.63588562  0.29750016    -0.25100
N804        N  0.20460586  0.63614572  0.31388477    -0.33000
C805        C  0.21984388  0.61821530  0.30969949     0.03200
C806        C  0.21205687  0.60622228  0.28980707     0.09300
C807        C  0.19176276  0.61778490  0.28242273    -0.03800
H808        H  0.23560358  0.61451827  0.32009753     0.09900
H809        H  0.18097323  0.61368259  0.26703051     0.11100
Cu810      Cu  0.20671022  0.66133496  0.34054607     0.44200
Cu811      Cu  0.16063518  0.66062116  0.29576472     0.42000
Cu812      Cu  0.16130577  0.70680150  0.34038997     0.43900
N813        N  0.20528646  0.68879434  0.36491278    -0.32500
N814        N  0.18866491  0.70543220  0.36485166    -0.26700
C815        C  0.19304534  0.72093227  0.38250626    -0.02800
C816        C  0.21331964  0.71356274  0.39410901     0.09400
C817        C  0.22071997  0.69323447  0.38261023     0.03200
H818        H  0.18246628  0.73654490  0.38632113     0.10800
H819        H  0.23630868  0.68265895  0.38652526     0.09900
N820        N  0.13618168  0.70467313  0.31368805    -0.33900
N821        N  0.13592974  0.68776159  0.29734745    -0.26100
C822        C  0.11786613  0.69177510  0.28222524    -0.01400
C823        C  0.10632331  0.71210984  0.28953954     0.07300
C824        C  0.11828693  0.71992947  0.30943325     0.05400
H825        H  0.11377365  0.68094880  0.26685510     0.10500
H826        H  0.11459225  0.73572040  0.31978862     0.09300
N827        N  0.13544343  0.18829286  0.16537137    -0.25100
N828        N  0.13543047  0.20506232  0.14888147    -0.33000
C829        C  0.11763168  0.22038049  0.15332214     0.03200
C830        C  0.10601307  0.21275129  0.17349466     0.09300
C831        C  0.11765422  0.19246197  0.18077441    -0.03800
H832        H  0.11374392  0.23606111  0.14287059     0.09900
H833        H  0.11378877  0.18174534  0.19627961     0.11100
Cu834      Cu  0.16002847  0.20687503  0.12165726     0.44200
Cu835      Cu  0.16006260  0.16106139  0.16671976     0.42000
Cu836      Cu  0.20515528  0.16114169  0.12098816     0.43900
N837        N  0.18692733  0.20517031  0.09669635    -0.32500
N838        N  0.20344101  0.18842704  0.09645346    -0.26700
C839        C  0.21862433  0.19268262  0.07849713    -0.02800
C840        C  0.21117538  0.21299959  0.06701288     0.09400
C841        C  0.19113249  0.22055807  0.07889909     0.03200
H842        H  0.23411191  0.18201772  0.07442513     0.10800
H843        H  0.18062630  0.23624887  0.07520587     0.09900
N844        N  0.20349834  0.13618932  0.14789491    -0.33900
N845        N  0.18698792  0.13615960  0.16464046    -0.26100
C846        C  0.19123982  0.11816210  0.17977942    -0.01400
C847        C  0.21130941  0.10642842  0.17205552     0.07300
C848        C  0.21872803  0.11821230  0.15190011     0.05400
H849        H  0.18075933  0.11424205  0.19543079     0.10500
H850        H  0.23423673  0.11434016  0.14119245     0.09300
N851        N  0.33416940  0.40358434  0.14919731    -0.25100
N852        N  0.35091571  0.40355431  0.16570702    -0.33000
C853        C  0.34671052  0.42131102  0.18114140     0.03200
C854        C  0.32642109  0.43294853  0.17385954     0.09300
C855        C  0.31883044  0.42136137  0.15365433    -0.03800
H856        H  0.35740852  0.42516319  0.19666155     0.09900
H857        H  0.30316762  0.42526189  0.14318466     0.11100
Cu858      Cu  0.37817646  0.37896641  0.16700539     0.44200
Cu859      Cu  0.33243677  0.37905289  0.12190654     0.42000
Cu860      Cu  0.37826875  0.33402779  0.12108222     0.43900
N861        N  0.40313087  0.35209546  0.16485162    -0.32500
N862        N  0.40317037  0.33564631  0.14804262    -0.26700
C863        C  0.42117362  0.32044102  0.15202589    -0.02800
C864        C  0.43290028  0.32781271  0.17223240     0.09400
C865        C  0.42110624  0.34782753  0.18000814     0.03200
H866        H  0.42510049  0.30497764  0.14126971     0.10800
H867        H  0.42496945  0.35825832  0.19570752     0.09900
N868        N  0.35099589  0.33577953  0.09653265    -0.33900
N869        N  0.33421800  0.35225712  0.09683752    -0.26100
C870        C  0.31884411  0.34808833  0.07902221    -0.01400
C871        C  0.32644555  0.32810674  0.06705694     0.07300
C872        C  0.34677493  0.32065508  0.07851549     0.05400
H873        H  0.30312924  0.35857219  0.07537398     0.10500
H874        H  0.35746706  0.30519962  0.07438879     0.09300
N875        N  0.18684178  0.13597533  0.79634540    -0.25100
N876        N  0.20337042  0.13599979  0.81307285    -0.33000
C877        C  0.21858605  0.11801440  0.80905366     0.03200
C878        C  0.21113933  0.10623140  0.78890883     0.09300
C879        C  0.19106800  0.11797334  0.78120484    -0.03800
H880        H  0.23410996  0.11414209  0.81973869     0.09900
H881        H  0.18057433  0.11406178  0.76556049     0.11100
Cu882      Cu  0.20509383  0.16096920  0.83995947     0.44200
Cu883      Cu  0.15993943  0.16089979  0.79426948     0.42000
Cu884      Cu  0.16005543  0.20678271  0.83924220     0.43900
N885        N  0.20345058  0.18829835  0.86445018    -0.32500
N886        N  0.18696874  0.20507247  0.86418569    -0.26700
C887        C  0.19120712  0.22048024  0.88195708    -0.02800
C888        C  0.21123877  0.21290383  0.89384941     0.09400
C889        C  0.21864702  0.19255402  0.88239561     0.03200
H890        H  0.18072728  0.23619292  0.88563230     0.10800
H891        H  0.23411259  0.18186354  0.88648364     0.09900
N892        N  0.13540752  0.20496787  0.81206475    -0.33900
N893        N  0.13536409  0.18816885  0.79560546    -0.26100
C894        C  0.11756020  0.19234336  0.78022151    -0.01400
C895        C  0.10596805  0.21266750  0.78748272     0.07300
C896        C  0.11763098  0.22031133  0.80762384     0.05400
H897        H  0.11365481  0.18160891  0.76473872     0.10500
H898        H  0.11379088  0.23602023  0.81805072     0.09300
N899        N  0.35099050  0.33579863  0.86430581    -0.25100
N900        N  0.33420899  0.35227198  0.86404139    -0.33000
C901        C  0.31884080  0.34805980  0.88185092     0.03200
C902        C  0.32645293  0.32805439  0.89376872     0.09300
C903        C  0.34678088  0.32063347  0.88228997    -0.03800
H904        H  0.30312914  0.35853671  0.88553335     0.09900
H905        H  0.35748465  0.30517776  0.88638523     0.11100
Cu906      Cu  0.33244276  0.37913195  0.83904551     0.44200
Cu907      Cu  0.37825953  0.33412378  0.83975862     0.42000
Cu908      Cu  0.37824424  0.37918379  0.79396809     0.43900
N909        N  0.33420770  0.40373602  0.81182647    -0.32500
N910        N  0.35096888  0.40375987  0.79533030    -0.26700
C911        C  0.34676047  0.42155215  0.77993773    -0.02800
C912        C  0.32645542  0.43315478  0.78723328     0.09400
C913        C  0.31885811  0.42151127  0.80740235     0.03200
H914        H  0.35746138  0.42544584  0.76442959     0.10800
H915        H  0.30317789  0.42536615  0.81786363     0.09900
N916        N  0.40318215  0.35228585  0.79606580    -0.33900
N917        N  0.40318378  0.33579486  0.81283330    -0.26100
C918        C  0.42116697  0.32057333  0.80883244    -0.01400
C919        C  0.43292440  0.32797429  0.78865712     0.07300
C920        C  0.42116758  0.34802687  0.78091570     0.05400
H921        H  0.42505606  0.30507584  0.81955308     0.10500
H922        H  0.42505938  0.35848557  0.76524195     0.09300
O923        O  0.26493973  0.23888055  0.00562400    -0.70700
O924        O  0.30054947  0.27437273  0.95525405    -0.71700
O925        O  0.30052097  0.27441451  0.00561710    -0.60300
O926        O  0.26497224  0.23883956  0.95526157    -0.68800
O927        O  0.23702553  0.26682655  0.95522284    -0.68300
O928        O  0.27257802  0.30240499  0.00558316    -0.59600
O929        O  0.27260410  0.30236144  0.95521665    -0.72100
O930        O  0.23699382  0.26686841  0.00558824    -0.70900
Cu931      Cu  0.28373790  0.25563339  0.98044094     1.04600
Cu932      Cu  0.25380817  0.28560961  0.98040153     1.04300
C933        C  0.24544513  0.24736976  0.01352237     0.95400
C934        C  0.29209575  0.29386855  0.94731578     0.94600
C935        C  0.29206255  0.29392456  0.01351614     0.86700
C936        C  0.24548802  0.24731701  0.94732618     0.93000
O937        O  0.26561327  0.54462094  0.26379310    -0.70700
O938        O  0.30090005  0.49425477  0.22796574    -0.71700
O939        O  0.30089664  0.54463010  0.22796842    -0.60300
O940        O  0.26561282  0.49424337  0.26378339    -0.68800
O941        O  0.23744134  0.49424787  0.23602610    -0.68300
O942        O  0.27272063  0.54462632  0.20021602    -0.59600
O943        O  0.27272671  0.49425353  0.20021074    -0.72100
O944        O  0.23743959  0.54462132  0.23603838    -0.70900
Cu945      Cu  0.28425565  0.51943741  0.24686409     1.04600
Cu946      Cu  0.25408104  0.51943742  0.21713846     1.04300
C947        C  0.24605756  0.55254149  0.25546790     0.95400
C948        C  0.29228609  0.48633807  0.20853343     0.94600
C949        C  0.29227952  0.55254560  0.20853693     0.86700
C950        C  0.24605813  0.48632241  0.25545245     0.93000
O951        O  0.54481759  0.23813615  0.23289327    -0.70700
O952        O  0.49446913  0.27394033  0.19757898    -0.71700
O953        O  0.54483868  0.27397538  0.19762145    -0.60300
O954        O  0.49444652  0.23811306  0.23286644    -0.68800
O955        O  0.49442333  0.26587194  0.26104007    -0.68300
O956        O  0.54480077  0.30172686  0.22580261    -0.59600
O957        O  0.49443251  0.30169718  0.22575528    -0.72100
O958        O  0.54479090  0.26588878  0.26107385    -0.70900
Cu959      Cu  0.51964435  0.25505594  0.21423907     1.04600
Cu960      Cu  0.51961067  0.28478160  0.24441797     1.04300
C961        C  0.55271995  0.24645980  0.25245673     0.95400
C962        C  0.48653334  0.29336704  0.20619169     0.94600
C963        C  0.55274120  0.29341126  0.20625113     0.86700
C964        C  0.48651460  0.24643592  0.25242046     0.93000
O965        O  0.23935736  0.27161623  0.50577846    -0.70700
O966        O  0.27495425  0.23602703  0.45545354    -0.71700
O967        O  0.27494017  0.23609344  0.50582008    -0.60300
O968        O  0.23935743  0.27154256  0.45541533    -0.68800
O969        O  0.26729288  0.29954482  0.45537664    -0.68300
O970        O  0.30288093  0.26409090  0.50579221    -0.59600
O971        O  0.30288942  0.26402903  0.45542493    -0.72100
O972        O  0.26729667  0.29961425  0.50574038    -0.70900
Cu973      Cu  0.25616177  0.25282442  0.48061792     1.04600
Cu974      Cu  0.28608330  0.28281283  0.48058195     1.04300
C975        C  0.24780803  0.29113586  0.51366704     0.95400
C976        C  0.29443915  0.24451510  0.44752480     0.94600
C977        C  0.29442074  0.24459819  0.51373560     0.86700
C978        C  0.24780315  0.29104231  0.44747656     0.93000
O979        O  0.23930812  0.76761120  0.45529632    -0.70700
O980        O  0.27488636  0.80310528  0.50569022    -0.71700
O981        O  0.27488182  0.80315505  0.45532596    -0.60300
O982        O  0.23931153  0.76756425  0.50565816    -0.68800
O983        O  0.26726349  0.73958219  0.50562849    -0.68300
O984        O  0.30283174  0.77517078  0.45529970    -0.59600
O985        O  0.30283531  0.77511973  0.50565924    -0.72100
O986        O  0.26726225  0.73963106  0.45527322    -0.70900
Cu987      Cu  0.25610509  0.78635480  0.48049367     1.04600
Cu988      Cu  0.28604135  0.75638421  0.48046396     1.04300
C989        C  0.24776727  0.74811219  0.44736996     0.95400
C990        C  0.29437428  0.79461109  0.51359903     0.94600
C991        C  0.29436946  0.79467759  0.44739808     0.86700
C992        C  0.24776961  0.74805093  0.51354970     0.93000
O993        O  0.73626570  0.26397107  0.45530678    -0.70700
O994        O  0.77179254  0.29948637  0.50571936    -0.71700
O995        O  0.77178037  0.29956951  0.45536134    -0.60300
O996        O  0.73626701  0.26390360  0.50566836    -0.68800
O997        O  0.76425240  0.23595501  0.50563250    -0.68300
O998        O  0.79977353  0.27162903  0.45531122    -0.59600
O999        O  0.79978058  0.27153996  0.50567157    -0.72100
O1000       O  0.76425795  0.23602884  0.45526762    -0.70900
Cu1001     Cu  0.75303137  0.28272325  0.48051534     1.04600
Cu1002     Cu  0.78300906  0.25279425  0.48046868     1.04300
C1003       C  0.74475814  0.24449468  0.44736086     0.95400
C1004       C  0.79129865  0.29102080  0.51361453     0.94600
C1005       C  0.79128587  0.29113583  0.44743279     0.86700
C1006       C  0.74475420  0.24440624  0.51356486     0.93000
O1007       O  0.27270616  0.49444539  0.76093931    -0.70700
O1008       O  0.23740228  0.54481748  0.72513512    -0.71700
O1009       O  0.23738878  0.49444472  0.72515404    -0.60300
O1010       O  0.27271315  0.54481213  0.76092372    -0.68800
O1011       O  0.30086452  0.54480060  0.73314403    -0.68300
O1012       O  0.26553917  0.49443082  0.69737380    -0.59600
O1013       O  0.26555413  0.54480250  0.69735694    -0.72100
O1014       O  0.30085488  0.49443614  0.73315806    -0.70900
Cu1015     Cu  0.25405141  0.51963058  0.74402377     1.04600
Cu1016     Cu  0.28420153  0.51961717  0.71427103     1.04300
C1017       C  0.29225856  0.48652769  0.75260139     0.95400
C1018       C  0.24600795  0.55273061  0.70569699     0.94600
C1019       C  0.24598914  0.48651691  0.70572108     0.86700
C1020       C  0.29226865  0.55271835  0.75258300     0.93000
O1021       O  0.73834870  0.54485580  0.22773741    -0.70700
O1022       O  0.77360726  0.49450904  0.26360114    -0.71700
O1023       O  0.77360391  0.54488138  0.26357631    -0.60300
O1024       O  0.73835194  0.49448840  0.22775501    -0.68800
O1025       O  0.76654416  0.49447940  0.20001807    -0.68300
O1026       O  0.80179809  0.54487385  0.23584091    -0.59600
O1027       O  0.80180273  0.49449861  0.23586738    -0.72100
O1028       O  0.76653955  0.54485345  0.19999865    -0.70900
Cu1029     Cu  0.75497820  0.51968363  0.24665235     1.04600
Cu1030     Cu  0.78517406  0.51967571  0.21694670     1.04300
C1031       C  0.74697397  0.55276760  0.20830871     0.95400
C1032       C  0.79316977  0.48658684  0.25529412     0.94600
C1033       C  0.79316362  0.55280287  0.25525880     0.86700
C1034       C  0.74697815  0.48656654  0.20833054     0.93000
O1035       O  0.49437458  0.23809356  0.72817312    -0.70700
O1036       O  0.54477923  0.27393339  0.76335787    -0.71700
O1037       O  0.49441679  0.27398111  0.76339297    -0.60300
O1038       O  0.54473592  0.23805997  0.72812809    -0.68800
O1039       O  0.54473116  0.26577945  0.69991471    -0.68300
O1040       O  0.49442411  0.30169409  0.73517328    -0.59600
O1041       O  0.54478652  0.30165217  0.73514280    -0.72100
O1042       O  0.49437355  0.26580833  0.69995429    -0.70900
Cu1043     Cu  0.51957614  0.25503355  0.74676609     1.04600
Cu1044     Cu  0.51957852  0.28471832  0.71654494     1.04300
C1045       C  0.48645528  0.24638994  0.70860596     0.95400
C1046       C  0.55270929  0.29334497  0.75470518     0.94600
C1047       C  0.48651017  0.29340672  0.75474770     0.86700
C1048       C  0.55264072  0.24635250  0.70855053     0.93000
O1049       O  0.54465762  0.76507135  0.19760144    -0.70700
O1050       O  0.49431784  0.80094501  0.23287083    -0.71700
O1051       O  0.54468097  0.80090927  0.23287100    -0.60300
O1052       O  0.49429424  0.76511036  0.19759905    -0.68800
O1053       O  0.49427059  0.73735929  0.22578162    -0.68300
O1054       O  0.54466001  0.77315991  0.26105512    -0.59600
O1055       O  0.49429597  0.77319466  0.26105361    -0.72100
O1056       O  0.54463632  0.73732051  0.22578376    -0.70900
Cu1057     Cu  0.51948868  0.78399352  0.21423455     1.04600
Cu1058     Cu  0.51946497  0.75427239  0.24441913     1.04300
C1059       C  0.55256131  0.74563562  0.20622470     0.95400
C1060       C  0.48639522  0.79263239  0.25243184     0.94600
C1061       C  0.55258863  0.79258722  0.25243277     0.86700
C1062       C  0.48636014  0.74568662  0.20622275     0.93000
O1063       O  0.77177321  0.73951424  0.45536006    -0.70700
O1064       O  0.73615069  0.77507359  0.50566574    -0.71700
O1065       O  0.73617471  0.77502281  0.45530696    -0.60300
O1066       O  0.77175147  0.73957152  0.50571448    -0.68800
O1067       O  0.79967953  0.76758264  0.50569581    -0.68300
O1068       O  0.76410601  0.80303068  0.45529294    -0.59600
O1069       O  0.76407997  0.80308305  0.50564936    -0.72100
O1070       O  0.79970233  0.76752345  0.45534372    -0.70900
Cu1071     Cu  0.75296883  0.75630182  0.48051230     1.04600
Cu1072     Cu  0.78288200  0.78630098  0.48049463     1.04300
C1073       C  0.79126582  0.74800032  0.44745120     0.95400
C1074       C  0.74459596  0.79458805  0.51356921     0.94600
C1075       C  0.74462827  0.79452217  0.44737476     0.86700
C1076       C  0.79123601  0.74807706  0.51362140     0.93000
O1077       O  0.80151774  0.49440516  0.72488282    -0.70700
O1078       O  0.76625319  0.54475398  0.76072873    -0.71700
O1079       O  0.76625995  0.49439576  0.76071835    -0.60300
O1080       O  0.80151111  0.54476499  0.72489731    -0.68800
O1081       O  0.77332554  0.54477213  0.69715286    -0.68300
O1082       O  0.73806716  0.49439131  0.73298149    -0.59600
O1083       O  0.73806137  0.54475786  0.73299131    -0.72100
O1084       O  0.77333196  0.49440065  0.69713930    -0.70900
Cu1085     Cu  0.78488671  0.51957950  0.74378987     1.04600
Cu1086     Cu  0.75469501  0.51958012  0.71407915     1.04300
C1087       C  0.79289494  0.48648805  0.70545549     0.95400
C1088       C  0.74668741  0.55266672  0.75242158     0.94600
C1089       C  0.74669426  0.48648224  0.75241053     0.86700
C1090       C  0.79288500  0.55268872  0.70547545     0.93000
O1091       O  0.49438473  0.76519153  0.76341725    -0.70700
O1092       O  0.54471778  0.80106608  0.72815308    -0.71700
O1093       O  0.49436144  0.80102954  0.72815012    -0.60300
O1094       O  0.54474195  0.76523361  0.76342320    -0.68800
O1095       O  0.54476337  0.73748320  0.73523916    -0.68300
O1096       O  0.49438298  0.77327834  0.69996706    -0.59600
O1097       O  0.54473427  0.77331289  0.69997129    -0.72100
O1098       O  0.49440787  0.73744202  0.73523186    -0.70900
Cu1099     Cu  0.51955037  0.78411524  0.74678809     1.04600
Cu1100     Cu  0.51957273  0.75439307  0.71660234     1.04300
C1101       C  0.48648543  0.74575476  0.75479106     0.95400
C1102       C  0.55263284  0.79275226  0.70859048     0.94600
C1103       C  0.48645866  0.79270743  0.70858581     0.86700
C1104       C  0.55267296  0.74581013  0.75479868     0.93000
C1105       C  0.31474388  0.31642859  0.91314720    -0.11100
C1106       C  0.30457469  0.30630688  0.92899931    -0.12600
C1107       C  0.46820739  0.30599589  0.76709579    -0.11100
C1108       C  0.45234554  0.31623652  0.77713023    -0.12600
C1109       C  0.30465759  0.46824056  0.76516515    -0.11100
C1110       C  0.31478556  0.45244207  0.77541359    -0.12600
C1111       C  0.23302609  0.23483903  0.92902313    -0.11100
C1112       C  0.22288675  0.22465174  0.91319286    -0.12600
C1113       C  0.31471110  0.31650912  0.04767350    -0.11100
C1114       C  0.30453089  0.30639020  0.03182472    -0.12600
C1115       C  0.31477564  0.45223711  0.18570341    -0.11100
C1116       C  0.30466982  0.46804229  0.19596484    -0.12600
C1117       C  0.46821320  0.30590371  0.19381582    -0.11100
C1118       C  0.45233657  0.31609656  0.18375615    -0.12600
C1119       C  0.22281072  0.22474398  0.04765967    -0.11100
C1120       C  0.23295882  0.23491738  0.03182606    -0.12600
C1121       C  0.23369922  0.57087130  0.26801113    -0.11100
C1122       C  0.22363559  0.58676247  0.27818042    -0.12600
C1123       C  0.22508449  0.72540029  0.41332439    -0.11100
C1124       C  0.23527630  0.73563292  0.42909016    -0.12600
C1125       C  0.08671099  0.22437590  0.18533296    -0.11100
C1126       C  0.07089736  0.23445698  0.19560293    -0.12600
C1127       C  0.95206964  0.31527862  0.27784708    -0.11100
C1128       C  0.96796054  0.30522527  0.26767146    -0.12600
C1129       C  0.81556348  0.45238501  0.27805998    -0.11100
C1130       C  0.80551792  0.46826626  0.26785870    -0.12600
C1131       C  0.81394237  0.31392646  0.41341687    -0.11100
C1132       C  0.80375482  0.30367385  0.42917456    -0.12600
C1133       C  0.95231299  0.22428861  0.18525015    -0.11100
C1134       C  0.96811564  0.23438608  0.19552189    -0.12600
C1135       C  0.08669573  0.31535730  0.27799458    -0.11100
C1136       C  0.07082434  0.30530498  0.26778374    -0.12600
C1137       C  0.23529903  0.30348932  0.42918319    -0.11100
C1138       C  0.22507517  0.31366664  0.41340225    -0.12600
C1139       C  0.22361735  0.45209965  0.27814399    -0.11100
C1140       C  0.23369558  0.46798836  0.26798492    -0.12600
C1141       C  0.22512181  0.31385165  0.54771236    -0.11100
C1142       C  0.23531864  0.30363348  0.53193876    -0.12600
C1143       C  0.22354793  0.45230093  0.68302753    -0.11100
C1144       C  0.23361622  0.46818758  0.69319680    -0.12600
C1145       C  0.31694023  0.22209045  0.54801682    -0.11100
C1146       C  0.30686237  0.23218550  0.53209167    -0.12600
C1147       C  0.45235114  0.22354164  0.68615646    -0.11100
C1148       C  0.46815691  0.23380388  0.69625405    -0.12600
C1149       C  0.22302595  0.08698816  0.18357396    -0.11100
C1150       C  0.23322662  0.07110375  0.19361492    -0.12600
C1151       C  0.30519383  0.96822427  0.26457828    -0.11100
C1152       C  0.31541970  0.95241333  0.27470926    -0.12600
C1153       C  0.45230412  0.81547378  0.27491790    -0.11100
C1154       C  0.46810772  0.80521708  0.26480784    -0.12600
C1155       C  0.30682349  0.80713358  0.42907651    -0.11100
C1156       C  0.31693971  0.81723503  0.41317751    -0.12600
C1157       C  0.22303302  0.95234155  0.18349607    -0.11100
C1158       C  0.23322975  0.96822749  0.19354153    -0.12600
C1159       C  0.31542114  0.08681612  0.27481283    -0.11100
C1160       C  0.30519065  0.07101890  0.26466168    -0.12600
C1161       C  0.46820558  0.23387176  0.26479425    -0.11100
C1162       C  0.45238321  0.22365609  0.27492240    -0.12600
C1163       C  0.31702978  0.22197549  0.41330063    -0.11100
C1164       C  0.30690355  0.23206586  0.42920216    -0.12600
C1165       C  0.58684491  0.22365371  0.27492357    -0.11100
C1166       C  0.57102143  0.23389856  0.26483402    -0.12600
C1167       C  0.72223823  0.22195030  0.41310243    -0.11100
C1168       C  0.73232642  0.23205539  0.42901539    -0.12600
C1169       C  0.30465624  0.57084423  0.19596424    -0.11100
C1170       C  0.31474395  0.58665343  0.18568974    -0.12600
C1171       C  0.45215642  0.72294034  0.18381689    -0.11100
C1172       C  0.46803235  0.73314626  0.19386389    -0.12600
C1173       C  0.57106505  0.30598332  0.19390957    -0.11100
C1174       C  0.58693381  0.31621881  0.18387576    -0.12600
C1175       C  0.73459670  0.46827084  0.19575877    -0.11100
C1176       C  0.72447573  0.45246895  0.18550608    -0.12600
C1177       C  0.80606394  0.23477519  0.03178797    -0.11100
C1178       C  0.81620445  0.22457945  0.04761103    -0.12600
C1179       C  0.72444443  0.31649170  0.04775033    -0.11100
C1180       C  0.73461341  0.30636189  0.03190422    -0.12600
C1181       C  0.72439257  0.31662072  0.91327286    -0.11100
C1182       C  0.73456400  0.30647573  0.92910710    -0.12600
C1183       C  0.57104753  0.30589081  0.76703711    -0.11100
C1184       C  0.58693281  0.31608473  0.77707789    -0.12600
C1185       C  0.72422102  0.45242249  0.77530452    -0.11100
C1186       C  0.73431619  0.46820494  0.76500250    -0.12600
C1187       C  0.81610060  0.22468968  0.91314883    -0.11100
C1188       C  0.80598109  0.23487598  0.92898940    -0.12600
C1189       C  0.08667986  0.22431520  0.77564590    -0.11100
C1190       C  0.07088157  0.23442252  0.76537911    -0.12600
C1191       C  0.07091546  0.30538849  0.69330216    -0.11100
C1192       C  0.08678125  0.31545292  0.68309816    -0.12600
C1193       C  0.96811629  0.23447216  0.76540599    -0.11100
C1194       C  0.95230835  0.22436547  0.77565698    -0.12600
C1195       C  0.95222934  0.31552578  0.68316477    -0.11100
C1196       C  0.96809318  0.30545150  0.69336125    -0.12600
C1197       C  0.81398200  0.31368703  0.54768759    -0.11100
C1198       C  0.80378001  0.30348905  0.53190688    -0.12600
C1199       C  0.81536451  0.45230766  0.68273923    -0.11100
C1200       C  0.80526498  0.46817641  0.69290390    -0.12600
C1201       C  0.23303438  0.80421480  0.03189251    -0.11100
C1202       C  0.22291609  0.81441707  0.04772259    -0.12600
C1203       C  0.30449985  0.73264178  0.03185901    -0.11100
C1204       C  0.31465874  0.72248344  0.04769433    -0.12600
C1205       C  0.31472444  0.72266274  0.91322053    -0.11100
C1206       C  0.30453963  0.73277161  0.92906619    -0.12600
C1207       C  0.31479199  0.58679412  0.77540227    -0.11100
C1208       C  0.30467079  0.57100107  0.76514274    -0.12600
C1209       C  0.45232320  0.72295484  0.77719344    -0.11100
C1210       C  0.46818336  0.73318119  0.76714677    -0.12600
C1211       C  0.22288068  0.81445076  0.91327493    -0.11100
C1212       C  0.23303703  0.80427921  0.92910287    -0.12600
C1213       C  0.23305476  0.07092729  0.76731828    -0.11100
C1214       C  0.22284819  0.08680103  0.77736866    -0.12600
C1215       C  0.30515485  0.07085460  0.69638701    -0.11100
C1216       C  0.31540592  0.08665150  0.68625906    -0.12600
C1217       C  0.22283475  0.95221188  0.77740371    -0.11100
C1218       C  0.23304025  0.96808181  0.76734617    -0.12600
C1219       C  0.31536755  0.95228899  0.68628831    -0.11100
C1220       C  0.30512407  0.96808825  0.69641731    -0.12600
C1221       C  0.31694349  0.81710193  0.54786012    -0.11100
C1222       C  0.30682993  0.80702907  0.53194283    -0.12600
C1223       C  0.45237491  0.81551861  0.68606938    -0.11100
C1224       C  0.46817224  0.80527477  0.69619775    -0.12600
C1225       C  0.81609786  0.08679160  0.18353011    -0.11100
C1226       C  0.80591896  0.07089986  0.19358426    -0.12600
C1227       C  0.72368086  0.08665015  0.27472637    -0.11100
C1228       C  0.73391478  0.07084932  0.26458809    -0.12600
C1229       C  0.72367708  0.95228649  0.27475758    -0.11100
C1230       C  0.73393000  0.96808083  0.26462646    -0.12600
C1231       C  0.58670717  0.81539432  0.27491020    -0.11100
C1232       C  0.57089064  0.80515045  0.26480773    -0.12600
C1233       C  0.72207795  0.81703107  0.41312018    -0.11100
C1234       C  0.73217736  0.80693942  0.42903181    -0.12600
C1235       C  0.80595757  0.96801604  0.19364538    -0.11100
C1236       C  0.81615869  0.95213273  0.18360507    -0.12600
C1237       C  0.08689753  0.72369137  0.27786807    -0.11100
C1238       C  0.07102864  0.73377393  0.26768867    -0.12600
C1239       C  0.07104015  0.80464853  0.19554342    -0.11100
C1240       C  0.08684376  0.81476147  0.18529018    -0.12600
C1241       C  0.95248260  0.81480268  0.18525519    -0.11100
C1242       C  0.96827967  0.80472045  0.19554671    -0.12600
C1243       C  0.95231091  0.72387382  0.27797304    -0.11100
C1244       C  0.96818866  0.73390725  0.26775628    -0.12600
C1245       C  0.81556127  0.58702909  0.27798483    -0.11100
C1246       C  0.80550935  0.57114047  0.26780080    -0.12600
C1247       C  0.81401996  0.72529093  0.41345287    -0.11100
C1248       C  0.80378337  0.73550489  0.42920126    -0.12600
C1249       C  0.23364542  0.57105667  0.69315526    -0.11100
C1250       C  0.22358433  0.58693548  0.68296605    -0.12600
C1251       C  0.23527877  0.73554712  0.53181460    -0.11100
C1252       C  0.22507414  0.72532205  0.54757804    -0.12600
C1253       C  0.58672357  0.22352621  0.68603879    -0.11100
C1254       C  0.57092025  0.23376315  0.69616862    -0.12600
C1255       C  0.72219700  0.22185390  0.54779870    -0.11100
C1256       C  0.73231558  0.23193868  0.53189006    -0.12600
C1257       C  0.73459206  0.57105636  0.19573348    -0.11100
C1258       C  0.72446462  0.58685711  0.18548999    -0.12600
C1259       C  0.57087306  0.73307012  0.19386545    -0.11100
C1260       C  0.58674216  0.72286375  0.18380738    -0.12600
C1261       C  0.80599434  0.07090757  0.76735180    -0.11100
C1262       C  0.81621132  0.08676387  0.77741822    -0.12600
C1263       C  0.73391077  0.07091245  0.69639006    -0.11100
C1264       C  0.72366692  0.08670664  0.68625485    -0.12600
C1265       C  0.07086519  0.80462735  0.76541862    -0.11100
C1266       C  0.08665896  0.81472288  0.77570367    -0.12600
C1267       C  0.08680810  0.72372593  0.68303514    -0.11100
C1268       C  0.07093721  0.73377273  0.69324341    -0.12600
C1269       C  0.80614886  0.80430702  0.03179473    -0.11100
C1270       C  0.81631181  0.81448058  0.04761775    -0.12600
C1271       C  0.73454505  0.73285754  0.03187773    -0.11100
C1272       C  0.72434439  0.72274935  0.04771617    -0.12600
C1273       C  0.95234316  0.81470412  0.77566256    -0.11100
C1274       C  0.96813250  0.80458742  0.76539808    -0.12600
C1275       C  0.81619085  0.95222345  0.77734400    -0.11100
C1276       C  0.80598514  0.96809458  0.76729288    -0.12600
C1277       C  0.80611463  0.80420598  0.92902204    -0.11100
C1278       C  0.81624098  0.81440064  0.91319275    -0.12600
C1279       C  0.95228530  0.72360581  0.68302671    -0.11100
C1280       C  0.96813546  0.73368778  0.69323655    -0.12600
C1281       C  0.81533673  0.58689653  0.68278819    -0.11100
C1282       C  0.80524615  0.57101449  0.69293940    -0.12600
C1283       C  0.81395751  0.72542308  0.54766968    -0.11100
C1284       C  0.80373865  0.73562166  0.53190323    -0.12600
C1285       C  0.72368495  0.95235151  0.68621167    -0.11100
C1286       C  0.73392246  0.96815009  0.69634705    -0.12600
C1287       C  0.58669605  0.81558410  0.68606760    -0.11100
C1288       C  0.57090590  0.80533764  0.69620374    -0.12600
C1289       C  0.72202262  0.81713515  0.54778776    -0.11100
C1290       C  0.73213061  0.80703297  0.53188656    -0.12600
C1291       C  0.72438409  0.72254364  0.91328304    -0.11100
C1292       C  0.73456345  0.73270119  0.92910482    -0.12600
C1293       C  0.58687033  0.72305828  0.77719755    -0.11100
C1294       C  0.57099634  0.73326858  0.76715653    -0.12600
C1295       C  0.72422239  0.58674429  0.77529844    -0.11100
C1296       C  0.73431149  0.57094884  0.76501018    -0.12600
loop_ 
_geom_bond_atom_site_label_1 
_geom_bond_atom_site_label_2 
_geom_bond_distance 
_geom_bond_site_symmetry_2 
_ccdc_geom_bond_type 
N1            N2   1.323       .  A
N1            C5   1.344       .  A
N1           Cu9   2.065       .  S
N2            C3   1.344       .  A
N2           Cu8   2.066       .  S
C3            C4   1.378       .  A
C3            H6   1.082       .  S
C4            C5   1.378       .  A
C4         C1291   1.431       .  S
C5            H7   1.082       .  S
Cu8          N11   2.066       .  S
Cu9          N19   2.065       .  S
Cu10         N12   2.065       .  S
Cu10         N18   2.065       .  S
N11          N12   1.323       .  A
N11          C15   1.344       .  A
N12          C13   1.344       .  A
C13          C14   1.378       .  A
C13          H16   1.082       .  S
C14          C15   1.378       .  A
C14        C1295   1.431       .  S
C15          H17   1.082       .  S
N18          N19   1.322       .  A
N18          C22   1.344       .  A
N19          C20   1.344       .  A
C20          C21   1.378       .  A
C20          H23   1.082       .  S
C21          C22   1.378       .  A
C21        C1293   1.431       .  S
C22          H24   1.082       .  S
N25          N26   1.323       .  A
N25          C29   1.344       .  A
N25         Cu33   2.066       .  S
N26          C27   1.344       .  A
N26         Cu32   2.065       .  S
C27          C28   1.378       .  A
C27          H30   1.082       .  S
C28          C29   1.378       .  A
C28        C1285   1.431       .  S
C29          H31   1.082       .  S
Cu32         N35   2.065       .  S
Cu33         N43   2.066       .  S
Cu34         N36   2.066       .  S
Cu34         N42   2.066       .  S
N35          N36   1.323       .  A
N35          C39   1.344       .  A
N36          C37   1.344       .  A
C37          C38   1.378       .  A
C37          H40   1.082       .  S
C38          C39   1.378       .  A
C38        C1287   1.431       .  S
C39          H41   1.082       .  S
N42          N43   1.323       .  A
N42          C46   1.344       .  A
N43          C44   1.344       .  A
C44          C45   1.378       .  A
C44          H47   1.082       .  S
C45          C46   1.378       .  A
C45        C1289   1.431       .  S
C46          H48   1.082       .  S
N49          N50   1.323       .  A
N49          C53   1.344       .  A
N49         Cu57   2.066       .  S
N50          C51   1.344       .  A
N50         Cu56   2.065       .  S
C51          C52   1.378       .  A
C51          H54   1.082       .  S
C52          C53   1.378       .  A
C52        C1283   1.431       .  S
C53          H55   1.082       .  S
Cu56         N59   2.065       .  S
Cu57         N67   2.066       .  S
Cu58         N60   2.066       .  S
Cu58         N66   2.066       .  S
N59          N60   1.323       .  A
N59          C63   1.344       .  A
N60          C61   1.344       .  A
C61          C62   1.378       .  A
C61          H64   1.082       .  S
C62          C63   1.378       .  A
C62        C1281   1.431       .  S
C63          H65   1.082       .  S
N66          N67   1.323       .  A
N66          C70   1.344       .  A
N67          C68   1.344       .  A
C68          C69   1.378       .  A
C68          H71   1.082       .  S
C69          C70   1.378       .  A
C69        C1279   1.431       .  S
C70          H72   1.082       .  S
N73          N74   1.323       .  A
N73          C77   1.344       .  A
N73         Cu81   2.065       .  S
N74          C75   1.344       .  A
N74         Cu80   2.066       .  S
C75          C76   1.378       .  A
C75          H78   1.082       .  S
C76          C77   1.378       .  A
C76        C1275   1.431       .  S
C77          H79   1.082       .  S
Cu80         N83   2.066       .  S
Cu81         N91   2.065       .  S
Cu82         N84   2.065       .  S
Cu82         N90   2.065       .  S
N83          N84   1.323       .  A
N83          C87   1.344       .  A
N84          C85   1.344       .  A
C85          C86   1.378       .  A
C85          H88   1.082       .  S
C86          C87   1.378       .  A
C86        C1278   1.431       .  S
C87          H89   1.082       .  S
N90          N91   1.323       .  A
N90          C94   1.344       .  A
N91          C92   1.344       .  A
C92          C93   1.378       .  A
C92          H95   1.082       .  S
C93          C94   1.378       .  A
C93        C1273   1.431       .  S
C94          H96   1.082       .  S
O97        Cu105   2.003       .  S
O97         C107   1.276       .  A
O98        Cu105   2.003   1_554  S
O98         C108   1.276       .  A
O99        Cu105   2.002       .  S
O99         C109   1.276       .  A
O100       Cu105   2.003   1_554  S
O100        C110   1.276       .  A
O101       Cu106   2.003   1_554  S
O101        C110   1.276       .  A
O102       Cu106   2.003       .  S
O102        C109   1.276       .  A
O103       Cu106   2.002   1_554  S
O103        C108   1.276       .  A
O104       Cu106   2.002       .  S
O104        C107   1.276       .  A
Cu105      Cu106   2.382       .  S
C107       C1277   1.429       .  S
C108       C1271   1.429       .  S
C109       C1292   1.429       .  S
C110       C1269   1.429       .  S
O111       Cu119   2.002   1_655  S
O111        C121   1.276       .  A
O112       Cu119   2.002       .  S
O112        C122   1.276       .  A
O113       Cu119   2.003   1_655  S
O113        C123   1.276       .  A
O114       Cu119   2.003       .  S
O114        C124   1.276       .  A
O115       Cu120   2.002       .  S
O115        C124   1.276       .  A
O116       Cu120   2.002   1_655  S
O116        C123   1.276       .  A
O117       Cu120   2.002       .  S
O117        C122   1.276       .  A
O118       Cu120   2.002   1_655  S
O118        C121   1.276       .  A
Cu119      Cu120   2.382       .  S
C121       C1274   1.429       .  S
C122       C1268   1.429       .  S
C123       C1280   1.429       .  S
C124       C1265   1.429       .  S
O125       Cu133   2.002   1_565  S
O125        C135   1.276       .  A
O126       Cu133   2.002       .  S
O126        C136   1.276       .  A
O127       Cu133   2.002   1_565  S
O127        C137   1.276       .  A
O128       Cu133   2.002       .  S
O128        C138   1.276       .  A
O129       Cu134   2.003       .  S
O129        C138   1.276       .  A
O130       Cu134   2.002   1_565  S
O130        C137   1.276       .  A
O131       Cu134   2.002       .  S
O131        C136   1.276       .  A
O132       Cu134   2.003   1_565  S
O132        C135   1.276       .  A
Cu133      Cu134   2.382       .  S
C135       C1286   1.429       .  S
C136       C1261   1.429       .  S
C137       C1276   1.429       .  S
C138       C1263   1.429       .  S
N139        N140   1.323       .  A
N139        C143   1.344       .  A
N139       Cu147   2.066       .  S
N140        C141   1.344       .  A
N140       Cu146   2.066       .  S
C141        C142   1.378       .  A
C141        H144   1.082       .  S
C142        C143   1.378       .  A
C142       C1260   1.431       .  S
C143        H145   1.082       .  S
Cu146       N149   2.066       .  S
Cu147       N157   2.066       .  S
Cu148       N150   2.065       .  S
Cu148       N156   2.065       .  S
N149        N150   1.323       .  A
N149        C153   1.344       .  A
N150        C151   1.344       .  A
C151        C152   1.378       .  A
C151        H154   1.082       .  S
C152        C153   1.378       .  A
C152       C1258   1.431       .  S
C153        H155   1.082       .  S
N156        N157   1.323       .  A
N156        C160   1.344       .  A
N157        C158   1.344       .  A
C158        C159   1.378       .  A
C158        H161   1.082       .  S
C159        C160   1.378       .  A
C159       C1272   1.431       .  S
C160        H162   1.082       .  S
N163        N164   1.323       .  A
N163        C167   1.344       .  A
N163       Cu171   2.065       .  S
N164        C165   1.344       .  A
N164       Cu170   2.066       .  S
C165        C166   1.378       .  A
C165        H168   1.082       .  S
C166        C167   1.378       .  A
C166       C1255   1.431       .  S
C167        H169   1.082       .  S
Cu170       N173   2.066       .  S
Cu171       N181   2.065       .  S
Cu172       N174   2.066       .  S
Cu172       N180   2.066       .  S
N173        N174   1.323       .  A
N173        C177   1.344       .  A
N174        C175   1.344       .  A
C175        C176   1.378       .  A
C175        H178   1.082       .  S
C176        C177   1.378       .  A
C176       C1253   1.431       .  S
C177        H179   1.082       .  S
N180        N181   1.323       .  A
N180        C184   1.344       .  A
N181        C182   1.344       .  A
C182        C183   1.378       .  A
C182        H185   1.082       .  S
C183        C184   1.378       .  A
C183       C1264   1.431       .  S
C184        H186   1.082       .  S
N187        N188   1.323       .  A
N187        C191   1.344       .  A
N187       Cu195   2.065       .  S
N188        C189   1.344       .  A
N188       Cu194   2.066       .  S
C189        C190   1.378       .  A
C189        H192   1.082       .  S
C190        C191   1.378       .  A
C190       C1250   1.431       .  S
C191        H193   1.082       .  S
Cu194       N197   2.066       .  S
Cu195       N205   2.065       .  S
Cu196       N198   2.066       .  S
Cu196       N204   2.066       .  S
N197        N198   1.323       .  A
N197        C201   1.344       .  A
N198        C199   1.344       .  A
C199        C200   1.378       .  A
C199        H202   1.082       .  S
C200        C201   1.378       .  A
C200       C1252   1.431       .  S
C201        H203   1.082       .  S
N204        N205   1.323       .  A
N204        C208   1.344       .  A
N205        C206   1.344       .  A
C206        C207   1.378       .  A
C206        H209   1.082       .  S
C207        C208   1.378       .  A
C207       C1267   1.431       .  S
C208        H210   1.082       .  S
N211        N212   1.322       .  A
N211        C215   1.344       .  A
N211       Cu219   2.065       .  S
N212        C213   1.344       .  A
N212       Cu218   2.066       .  S
C213        C214   1.378       .  A
C213        H216   1.082       .  S
C214        C215   1.378       .  A
C214       C1245   1.431       .  S
C215        H217   1.082       .  S
Cu218       N221   2.066       .  S
Cu219       N229   2.065       .  S
Cu220       N222   2.066       .  S
Cu220       N228   2.066       .  S
N221        N222   1.323       .  A
N221        C225   1.344       .  A
N222        C223   1.344       .  A
C223        C224   1.378       .  A
C223        H226   1.082       .  S
C224        C225   1.378       .  A
C224       C1247   1.431       .  S
C225        H227   1.082       .  S
N228        N229   1.323       .  A
N228        C232   1.344       .  A
N229        C230   1.344       .  A
C230        C231   1.378       .  A
C230        H233   1.082       .  S
C231        C232   1.378       .  A
C231       C1243   1.431       .  S
C232        H234   1.082       .  S
O235       Cu243   2.002   1_655  S
O235        C245   1.276       .  A
O236       Cu243   2.002       .  S
O236        C246   1.276       .  A
O237       Cu243   2.003   1_655  S
O237        C247   1.276       .  A
O238       Cu243   2.003       .  S
O238        C248   1.276       .  A
O239       Cu244   2.002       .  S
O239        C248   1.276       .  A
O240       Cu244   2.002   1_655  S
O240        C247   1.276       .  A
O241       Cu244   2.003       .  S
O241        C246   1.276       .  A
O242       Cu244   2.003   1_655  S
O242        C245   1.276       .  A
Cu243      Cu244   2.382       .  S
C245       C1244   1.429       .  S
C246       C1239   1.429       .  S
C247       C1242   1.429       .  S
C248       C1238   1.429       .  S
N249        N250   1.322       .  A
N249        C253   1.344       .  A
N249       Cu257   2.066       .  S
N250        C251   1.344       .  A
N250       Cu256   2.066       .  S
C251        C252   1.378       .  A
C251        H254   1.082       .  S
C252        C253   1.378       .  A
C252       C1236   1.431       .  S
C253        H255   1.082       .  S
Cu256       N259   2.066       .  S
Cu257       N267   2.066       .  S
Cu258       N260   2.066       .  S
Cu258       N266   2.066       .  S
N259        N260   1.323       .  A
N259        C263   1.344       .  A
N260        C261   1.344       .  A
C261        C262   1.378       .  A
C261        H264   1.082       .  S
C262        C263   1.378       .  A
C262       C1241   1.431       .  S
C263        H265   1.082       .  S
N266        N267   1.323       .  A
N266        C270   1.344       .  A
N267        C268   1.344       .  A
C268        C269   1.378       .  A
C268        H271   1.082       .  S
C269        C270   1.378       .  A
C269       C1270   1.431       .  S
C270        H272   1.082       .  S
N273        N274   1.323       .  A
N273        C277   1.344       .  A
N273       Cu281   2.066       .  S
N274        C275   1.344       .  A
N274       Cu280   2.066       .  S
C275        C276   1.378       .  A
C275        H278   1.082       .  S
C276        C277   1.378       .  A
C276       C1229   1.431       .  S
C277        H279   1.082       .  S
Cu280       N283   2.066       .  S
Cu281       N291   2.065       .  S
Cu282       N284   2.065       .  S
Cu282       N290   2.065       .  S
N283        N284   1.323       .  A
N283        C287   1.344       .  A
N284        C285   1.344       .  A
C285        C286   1.378       .  A
C285        H288   1.082       .  S
C286        C287   1.378       .  A
C286       C1231   1.431       .  S
C287        H289   1.082       .  S
N290        N291   1.323       .  A
N290        C294   1.344       .  A
N291        C292   1.344       .  A
C292        C293   1.378       .  A
C292        H295   1.082       .  S
C293        C294   1.378       .  A
C293       C1233   1.431       .  S
C294        H296   1.082       .  S
O297       Cu305   2.003   1_565  S
O297        C307   1.276       .  A
O298       Cu305   2.003       .  S
O298        C308   1.276       .  A
O299       Cu305   2.003   1_565  S
O299        C309   1.276       .  A
O300       Cu305   2.003       .  S
O300        C310   1.276       .  A
O301       Cu306   2.003       .  S
O301        C310   1.276       .  A
O302       Cu306   2.003   1_565  S
O302        C309   1.276       .  A
O303       Cu306   2.003       .  S
O303        C308   1.276       .  A
O304       Cu306   2.003   1_565  S
O304        C307   1.276       .  A
Cu305      Cu306   2.382       .  S
C307       C1235   1.429       .  S
C308       C1228   1.429       .  S
C309       C1230   1.429       .  S
C310       C1226   1.429       .  S
N311        N312   1.323       .  A
N311        C315   1.344       .  A
N311       Cu319   2.065       .  S
N312        C313   1.344       .  A
N312       Cu318   2.066       .  S
C313        C314   1.378       .  A
C313        H316   1.082       .  S
C314        C315   1.378       .  A
C314       C1219   1.431       .  S
C315        H317   1.082       .  S
Cu318       N321   2.066       .  S
Cu319       N329   2.065       .  S
Cu320       N322   2.066       .  S
Cu320       N328   2.066       .  S
N321        N322   1.323       .  A
N321        C325   1.344       .  A
N322        C323   1.344       .  A
C323        C324   1.378       .  A
C323        H326   1.082       .  S
C324        C325   1.378       .  A
C324       C1223   1.431       .  S
C325        H327   1.082       .  S
N328        N329   1.323       .  A
N328        C332   1.344       .  A
N329        C330   1.344       .  A
C330        C331   1.378       .  A
C330        H333   1.082       .  S
C331        C332   1.378       .  A
C331       C1221   1.431       .  S
C332        H334   1.082       .  S
O335       Cu343   2.003       .  S
O335        C345   1.276       .  A
O336       Cu343   2.003   1_565  S
O336        C346   1.276       .  A
O337       Cu343   2.003       .  S
O337        C347   1.276       .  A
O338       Cu343   2.002   1_565  S
O338        C348   1.276       .  A
O339       Cu344   2.003   1_565  S
O339        C348   1.276       .  A
O340       Cu344   2.003       .  S
O340        C347   1.276       .  A
O341       Cu344   2.003   1_565  S
O341        C346   1.276       .  A
O342       Cu344   2.003       .  S
O342        C345   1.276       .  A
Cu343      Cu344   2.382       .  S
C345       C1213   1.429       .  S
C346       C1220   1.429       .  S
C347       C1215   1.429       .  S
C348       C1218   1.429       .  S
N349        N350   1.323       .  A
N349        C353   1.344       .  A
N349       Cu357   2.066       .  S
N350        C351   1.344       .  A
N350       Cu356   2.066       .  S
C351        C352   1.378       .  A
C351        H354   1.082       .  S
C352        C353   1.378       .  A
C352       C1211   1.431       .  S
C353        H355   1.082       .  S
Cu356       N359   2.066       .  S
Cu357       N367   2.066       .  S
Cu358       N360   2.065       .  S
Cu358       N366   2.065       .  S
N359        N360   1.323       .  A
N359        C363   1.344       .  A
N360        C361   1.344       .  A
C361        C362   1.378       .  A
C361        H364   1.082       .  S
C362        C363   1.378       .  A
C362       C1217   1.431       .  S
C363        H365   1.082       .  S
N366        N367   1.323       .  A
N366        C370   1.344       .  A
N367        C368   1.344       .  A
C368        C369   1.378       .  A
C368        H371   1.082       .  S
C369        C370   1.378       .  A
C369       C1266   1.431       .  S
C370        H372   1.082       .  S
N373        N374   1.323       .  A
N373        C377   1.344       .  A
N373       Cu381   2.065       .  S
N374        C375   1.344       .  A
N374       Cu380   2.065       .  S
C375        C376   1.378       .  A
C375        H378   1.082       .  S
C376        C377   1.378       .  A
C376       C1207   1.431       .  S
C377        H379   1.082       .  S
Cu380       N383   2.065       .  S
Cu381       N391   2.065       .  S
Cu382       N384   2.065       .  S
Cu382       N390   2.065       .  S
N383        N384   1.323       .  A
N383        C387   1.344       .  A
N384        C385   1.344       .  A
C385        C386   1.378       .  A
C385        H388   1.082       .  S
C386        C387   1.378       .  A
C386       C1205   1.431       .  S
C387        H389   1.082       .  S
N390        N391   1.323       .  A
N390        C394   1.344       .  A
N391        C392   1.344       .  A
C392        C393   1.378       .  A
C392        H395   1.082       .  S
C393        C394   1.378       .  A
C393       C1209   1.431       .  S
C394        H396   1.082       .  S
O397       Cu405   2.003   1_554  S
O397        C407   1.276       .  A
O398       Cu405   2.003       .  S
O398        C408   1.276       .  A
O399       Cu405   2.003   1_554  S
O399        C409   1.276       .  A
O400       Cu405   2.003       .  S
O400        C410   1.276       .  A
O401       Cu406   2.003       .  S
O401        C410   1.276       .  A
O402       Cu406   2.003   1_554  S
O402        C409   1.276       .  A
O403       Cu406   2.002       .  S
O403        C408   1.276       .  A
O404       Cu406   2.002   1_554  S
O404        C407   1.276       .  A
Cu405      Cu406   2.382       .  S
C407       C1201   1.429       .  S
C408       C1206   1.429       .  S
C409       C1203   1.429       .  S
C410       C1212   1.429       .  S
N411        N412   1.323       .  A
N411        C415   1.344       .  A
N411       Cu419   2.066       .  S
N412        C413   1.344       .  A
N412       Cu418   2.066       .  S
C413        C414   1.378       .  A
C413        H416   1.082       .  S
C414        C415   1.378       .  A
C414       C1195   1.431       .  S
C415        H417   1.082       .  S
Cu418       N421   2.066       .  S
Cu419       N429   2.066       .  S
Cu420       N422   2.065       .  S
Cu420       N428   2.065       .  S
N421        N422   1.323       .  A
N421        C425   1.344       .  A
N422        C423   1.344       .  A
C423        C424   1.378       .  A
C423        H426   1.082       .  S
C424        C425   1.378       .  A
C424       C1197   1.431       .  S
C425        H427   1.082       .  S
N428        N429   1.323       .  A
N428        C432   1.344       .  A
N429        C430   1.344       .  A
C430        C431   1.378       .  A
C430        H433   1.082       .  S
C431        C432   1.378       .  A
C431       C1199   1.431       .  S
C432        H434   1.082       .  S
O435       Cu443   2.003       .  S
O435        C445   1.276       .  A
O436       Cu443   2.003   1_655  S
O436        C446   1.276       .  A
O437       Cu443   2.002       .  S
O437        C447   1.276       .  A
O438       Cu443   2.002   1_655  S
O438        C448   1.276       .  A
O439       Cu444   2.003   1_655  S
O439        C448   1.276       .  A
O440       Cu444   2.003       .  S
O440        C447   1.276       .  A
O441       Cu444   2.003   1_655  S
O441        C446   1.276       .  A
O442       Cu444   2.003       .  S
O442        C445   1.276       .  A
Cu443      Cu444   2.382       .  S
C445       C1190   1.429       .  S
C446       C1196   1.429       .  S
C447       C1191   1.429       .  S
C448       C1193   1.429       .  S
N449        N450   1.323       .  A
N449        C453   1.344       .  A
N449       Cu457   2.066       .  S
N450        C451   1.344       .  A
N450       Cu456   2.065       .  S
C451        C452   1.378       .  A
C451        H454   1.082       .  S
C452        C453   1.378       .  A
C452       C1194   1.431       .  S
C453        H455   1.082       .  S
Cu456       N459   2.065       .  S
Cu457       N467   2.066       .  S
Cu458       N460   2.066       .  S
Cu458       N466   2.066       .  S
N459        N460   1.323       .  A
N459        C463   1.344       .  A
N460        C461   1.344       .  A
C461        C462   1.378       .  A
C461        H464   1.082       .  S
C462        C463   1.378       .  A
C462       C1187   1.431       .  S
C463        H465   1.082       .  S
N466        N467   1.323       .  A
N466        C470   1.344       .  A
N467        C468   1.344       .  A
C468        C469   1.378       .  A
C468        H471   1.082       .  S
C469        C470   1.378       .  A
C469       C1262   1.431       .  S
C470        H472   1.082       .  S
N473        N474   1.322       .  A
N473        C477   1.344       .  A
N473       Cu481   2.065       .  S
N474        C475   1.344       .  A
N474       Cu480   2.066       .  S
C475        C476   1.378       .  A
C475        H478   1.082       .  S
C476        C477   1.378       .  A
C476       C1184   1.431       .  S
C477        H479   1.082       .  S
Cu480       N483   2.066       .  S
Cu481       N491   2.065       .  S
Cu482       N484   2.066       .  S
Cu482       N490   2.066       .  S
N483        N484   1.323       .  A
N483        C487   1.344       .  A
N484        C485   1.344       .  A
C485        C486   1.378       .  A
C485        H488   1.082       .  S
C486        C487   1.378       .  A
C486       C1181   1.431       .  S
C487        H489   1.082       .  S
N490        N491   1.323       .  A
N490        C494   1.344       .  A
N491        C492   1.344       .  A
C492        C493   1.378       .  A
C492        H495   1.082       .  S
C493        C494   1.378       .  A
C493       C1185   1.431       .  S
C494        H496   1.082       .  S
O497       Cu505   2.002       .  S
O497        C507   1.276       .  A
O498       Cu505   2.002   1_554  S
O498        C508   1.276       .  A
O499       Cu505   2.003       .  S
O499        C509   1.276       .  A
O500       Cu505   2.003   1_554  S
O500        C510   1.276       .  A
O501       Cu506   2.003   1_554  S
O501        C510   1.276       .  A
O502       Cu506   2.003       .  S
O502        C509   1.276       .  A
O503       Cu506   2.003   1_554  S
O503        C508   1.276       .  A
O504       Cu506   2.003       .  S
O504        C507   1.276       .  A
Cu505      Cu506   2.382       .  S
C507       C1188   1.429       .  S
C508       C1180   1.429       .  S
C509       C1182   1.429       .  S
C510       C1177   1.429       .  S
N511        N512   1.323       .  A
N511        C515   1.344       .  A
N511       Cu519   2.066       .  S
N512        C513   1.344       .  A
N512       Cu518   2.066       .  S
C513        C514   1.378       .  A
C513        H516   1.082       .  S
C514        C515   1.378       .  A
C514       C1176   1.431       .  S
C515        H517   1.082       .  S
Cu518       N521   2.066       .  S
Cu519       N529   2.066       .  S
Cu520       N522   2.066       .  S
Cu520       N528   2.066       .  S
N521        N522   1.323       .  A
N521        C525   1.344       .  A
N522        C523   1.344       .  A
C523        C524   1.378       .  A
C523        H526   1.082       .  S
C524        C525   1.378       .  A
C524       C1174   1.432       .  S
C525        H527   1.082       .  S
N528        N529   1.323       .  A
N528        C532   1.344       .  A
N529        C530   1.344       .  A
C530        C531   1.378       .  A
C530        H533   1.082       .  S
C531        C532   1.378       .  A
C531       C1179   1.431       .  S
C532        H534   1.082       .  S
N535        N536   1.323       .  A
N535        C539   1.344       .  A
N535       Cu543   2.066       .  S
N536        C537   1.344       .  A
N536       Cu542   2.066       .  S
C537        C538   1.378       .  A
C537        H540   1.082       .  S
C538        C539   1.378       .  A
C538       C1170   1.431       .  S
C539        H541   1.082       .  S
Cu542       N545   2.066       .  S
Cu543       N553   2.066       .  S
Cu544       N546   2.066       .  S
Cu544       N552   2.066       .  S
N545        N546   1.323       .  A
N545        C549   1.344       .  A
N546        C547   1.344       .  A
C547        C548   1.378       .  A
C547        H550   1.082       .  S
C548        C549   1.378       .  A
C548       C1171   1.431       .  S
C549        H551   1.082       .  S
N552        N553   1.323       .  A
N552        C556   1.344       .  A
N553        C554   1.344       .  A
C554        C555   1.378       .  A
C554        H557   1.082       .  S
C555        C556   1.378       .  A
C555       C1204   1.431       .  S
C556        H558   1.082       .  S
N559        N560   1.323       .  A
N559        C563   1.344       .  A
N559       Cu567   2.065       .  S
N560        C561   1.344       .  A
N560       Cu566   2.066       .  S
C561        C562   1.378       .  A
C561        H564   1.082       .  S
C562        C563   1.378       .  A
C562       C1165   1.431       .  S
C563        H565   1.082       .  S
Cu566       N569   2.066       .  S
Cu567       N577   2.065       .  S
Cu568       N570   2.066       .  S
Cu568       N576   2.066       .  S
N569        N570   1.323       .  A
N569        C573   1.344       .  A
N570        C571   1.344       .  A
C571        C572   1.378       .  A
C571        H574   1.082       .  S
C572        C573   1.378       .  A
C572       C1227   1.431       .  S
C573        H575   1.082       .  S
N576        N577   1.323       .  A
N576        C580   1.344       .  A
N577        C578   1.344       .  A
C578        C579   1.378       .  A
C578        H581   1.082       .  S
C579        C580   1.378       .  A
C579       C1167   1.431       .  S
C580        H582   1.082       .  S
N583        N584   1.323       .  A
N583        C587   1.344       .  A
N583       Cu591   2.066       .  S
N584        C585   1.344       .  A
N584       Cu590   2.066       .  S
C585        C586   1.378       .  A
C585        H588   1.082       .  S
C586        C587   1.378       .  A
C586       C1159   1.431       .  S
C587        H589   1.082       .  S
Cu590       N593   2.066       .  S
Cu591       N601   2.066       .  S
Cu592       N594   2.066       .  S
Cu592       N600   2.066       .  S
N593        N594   1.323       .  A
N593        C597   1.344       .  A
N594        C595   1.344       .  A
C595        C596   1.378       .  A
C595        H598   1.082       .  S
C596        C597   1.378       .  A
C596       C1162   1.432       .  S
C597        H599   1.082       .  S
N600        N601   1.323       .  A
N600        C604   1.344       .  A
N601        C602   1.344       .  A
C602        C603   1.378       .  A
C602        H605   1.082       .  S
C603        C604   1.378       .  A
C603       C1163   1.432       .  S
C604        H606   1.082       .  S
N607        N608   1.323       .  A
N607        C611   1.344       .  A
N607       Cu615   2.066       .  S
N608        C609   1.344       .  A
N608       Cu614   2.066       .  S
C609        C610   1.378       .  A
C609        H612   1.082       .  S
C610        C611   1.378       .  A
C610       C1157   1.431       .  S
C611        H613   1.082       .  S
Cu614       N617   2.066       .  S
Cu615       N625   2.066       .  S
Cu616       N618   2.065       .  S
Cu616       N624   2.065       .  S
N617        N618   1.323       .  A
N617        C621   1.344       .  A
N618        C619   1.344       .  A
C619        C620   1.378       .  A
C619        H622   1.082       .  S
C620        C621   1.378       .  A
C620       C1240   1.431       .  S
C621        H623   1.082       .  S
N624        N625   1.323       .  A
N624        C628   1.344       .  A
N625        C626   1.344       .  A
C626        C627   1.378       .  A
C626        H629   1.082       .  S
C627        C628   1.378       .  A
C627       C1202   1.431       .  S
C628        H630   1.082       .  S
N631        N632   1.323       .  A
N631        C635   1.344       .  A
N631       Cu639   2.066       .  S
N632        C633   1.344       .  A
N632       Cu638   2.066       .  S
C633        C634   1.378       .  A
C633        H636   1.082       .  S
C634        C635   1.378       .  A
C634       C1153   1.431       .  S
C635        H637   1.082       .  S
Cu638       N641   2.066       .  S
Cu639       N649   2.066       .  S
Cu640       N642   2.066       .  S
Cu640       N648   2.066       .  S
N641        N642   1.323       .  A
N641        C645   1.344       .  A
N642        C643   1.344       .  A
C643        C644   1.378       .  A
C643        H646   1.082       .  S
C644        C645   1.378       .  A
C644       C1152   1.431       .  S
C645        H647   1.082       .  S
N648        N649   1.323       .  A
N648        C652   1.344       .  A
N649        C650   1.344       .  A
C650        C651   1.378       .  A
C650        H653   1.082       .  S
C651        C652   1.378       .  A
C651       C1156   1.431       .  S
C652        H654   1.082       .  S
O655       Cu663   2.003       .  S
O655        C665   1.276       .  A
O656       Cu663   2.003   1_565  S
O656        C666   1.276       .  A
O657       Cu663   2.003       .  S
O657        C667   1.276       .  A
O658       Cu663   2.003   1_565  S
O658        C668   1.276       .  A
O659       Cu664   2.003   1_565  S
O659        C668   1.276       .  A
O660       Cu664   2.003       .  S
O660        C667   1.276       .  A
O661       Cu664   2.003   1_565  S
O661        C666   1.276       .  A
O662       Cu664   2.003       .  S
O662        C665   1.276       .  A
Cu663      Cu664   2.382       .  S
C665       C1160   1.429       .  S
C666       C1158   1.429       .  S
C667       C1150   1.429       .  S
C668       C1151   1.429       .  S
N669        N670   1.322       .  A
N669        C673   1.344       .  A
N669       Cu677   2.066       .  S
N670        C671   1.344       .  A
N670       Cu676   2.065       .  S
C671        C672   1.378       .  A
C671        H674   1.082       .  S
C672        C673   1.378       .  A
C672       C1145   1.431       .  S
C673        H675   1.082       .  S
Cu676       N679   2.065       .  S
Cu677       N687   2.066       .  S
Cu678       N680   2.066       .  S
Cu678       N686   2.066       .  S
N679        N680   1.323       .  A
N679        C683   1.344       .  A
N680        C681   1.344       .  A
C681        C682   1.378       .  A
C681        H684   1.082       .  S
C682        C683   1.378       .  A
C682       C1147   1.431       .  S
C683        H685   1.082       .  S
N686        N687   1.323       .  A
N686        C690   1.344       .  A
N687        C688   1.344       .  A
C688        C689   1.378       .  A
C688        H691   1.082       .  S
C689        C690   1.378       .  A
C689       C1216   1.431       .  S
C690        H692   1.082       .  S
N693        N694   1.323       .  A
N693        C697   1.344       .  A
N693       Cu701   2.065       .  S
N694        C695   1.344       .  A
N694       Cu700   2.066       .  S
C695        C696   1.378       .  A
C695        H698   1.082       .  S
C696        C697   1.378       .  A
C696       C1143   1.431       .  S
C697        H699   1.082       .  S
Cu700       N703   2.066       .  S
Cu701       N711   2.065       .  S
Cu702       N704   2.066       .  S
Cu702       N710   2.066       .  S
N703        N704   1.323       .  A
N703        C707   1.344       .  A
N704        C705   1.344       .  A
C705        C706   1.378       .  A
C705        H708   1.082       .  S
C706        C707   1.378       .  A
C706       C1141   1.431       .  S
C707        H709   1.082       .  S
N710        N711   1.323       .  A
N710        C714   1.344       .  A
N711        C712   1.344       .  A
C712        C713   1.378       .  A
C712        H715   1.082       .  S
C713        C714   1.378       .  A
C713       C1192   1.431       .  S
C714        H716   1.082       .  S
N717        N718   1.323       .  A
N717        C721   1.344       .  A
N717       Cu725   2.066       .  S
N718        C719   1.344       .  A
N718       Cu724   2.066       .  S
C719        C720   1.378       .  A
C719        H722   1.082       .  S
C720        C721   1.378       .  A
C720       C1139   1.431       .  S
C721        H723   1.082       .  S
Cu724       N727   2.066       .  S
Cu725       N735   2.066       .  S
Cu726       N728   2.066       .  S
Cu726       N734   2.066       .  S
N727        N728   1.323       .  A
N727        C731   1.344       .  A
N728        C729   1.344       .  A
C729        C730   1.378       .  A
C729        H732   1.082       .  S
C730        C731   1.378       .  A
C730       C1138   1.431       .  S
C731        H733   1.082       .  S
N734        N735   1.323       .  A
N734        C738   1.344       .  A
N735        C736   1.344       .  A
C736        C737   1.378       .  A
C736        H739   1.082       .  S
C737        C738   1.378       .  A
C737       C1135   1.431       .  S
C738        H740   1.082       .  S
N741        N742   1.323       .  A
N741        C745   1.344       .  A
N741       Cu749   2.066       .  S
N742        C743   1.344       .  A
N742       Cu748   2.066       .  S
C743        C744   1.378       .  A
C743        H746   1.082       .  S
C744        C745   1.378       .  A
C744       C1133   1.431       .  S
C745        H747   1.082       .  S
Cu748       N751   2.066       .  S
Cu749       N759   2.066       .  S
Cu750       N752   2.066       .  S
Cu750       N758   2.066       .  S
N751        N752   1.323       .  A
N751        C755   1.344       .  A
N752        C753   1.344       .  A
C753        C754   1.378       .  A
C753        H756   1.082       .  S
C754        C755   1.378       .  A
C754       C1225   1.431       .  S
C755        H757   1.082       .  S
N758        N759   1.323       .  A
N758        C762   1.344       .  A
N759        C760   1.344       .  A
C760        C761   1.378       .  A
C760        H763   1.082       .  S
C761        C762   1.378       .  A
C761       C1178   1.431       .  S
C762        H764   1.082       .  S
N765        N766   1.322       .  A
N765        C769   1.344       .  A
N765       Cu773   2.066       .  S
N766        C767   1.344       .  A
N766       Cu772   2.066       .  S
C767        C768   1.378       .  A
C767        H770   1.082       .  S
C768        C769   1.378       .  A
C768       C1127   1.431       .  S
C769        H771   1.082       .  S
Cu772       N775   2.066       .  S
Cu773       N783   2.066       .  S
Cu774       N776   2.066       .  S
Cu774       N782   2.066       .  S
N775        N776   1.323       .  A
N775        C779   1.344       .  A
N776        C777   1.344       .  A
C777        C778   1.378       .  A
C777        H780   1.082       .  S
C778        C779   1.378       .  A
C778       C1131   1.431       .  S
C779        H781   1.082       .  S
N782        N783   1.323       .  A
N782        C786   1.344       .  A
N783        C784   1.344       .  A
C784        C785   1.378       .  A
C784        H787   1.082       .  S
C785        C786   1.378       .  A
C785       C1129   1.431       .  S
C786        H788   1.082       .  S
O789       Cu797   2.003   1_655  S
O789        C799   1.276       .  A
O790       Cu797   2.003       .  S
O790        C800   1.276       .  A
O791       Cu797   2.003   1_655  S
O791        C801   1.276       .  A
O792       Cu797   2.003       .  S
O792        C802   1.276       .  A
O793       Cu798   2.003       .  S
O793        C802   1.276       .  A
O794       Cu798   2.003   1_655  S
O794        C801   1.276       .  A
O795       Cu798   2.003       .  S
O795        C800   1.276       .  A
O796       Cu798   2.003   1_655  S
O796        C799   1.276       .  A
Cu797      Cu798   2.382       .  S
C799       C1128   1.429       .  S
C800       C1126   1.429       .  S
C801       C1134   1.429       .  S
C802       C1136   1.429       .  S
N803        N804   1.323       .  A
N803        C807   1.344       .  A
N803       Cu811   2.066       .  S
N804        C805   1.344       .  A
N804       Cu810   2.066       .  S
C805        C806   1.378       .  A
C805        H808   1.082       .  S
C806        C807   1.378       .  A
C806       C1122   1.431       .  S
C807        H809   1.082       .  S
Cu810       N813   2.066       .  S
Cu811       N821   2.066       .  S
Cu812       N814   2.065       .  S
Cu812       N820   2.065       .  S
N813        N814   1.323       .  A
N813        C817   1.344       .  A
N814        C815   1.344       .  A
C815        C816   1.378       .  A
C815        H818   1.082       .  S
C816        C817   1.378       .  A
C816       C1123   1.431       .  S
C817        H819   1.082       .  S
N820        N821   1.323       .  A
N820        C824   1.344       .  A
N821        C822   1.344       .  A
C822        C823   1.378       .  A
C822        H825   1.082       .  S
C823        C824   1.378       .  A
C823       C1237   1.431       .  S
C824        H826   1.082       .  S
N827        N828   1.323       .  A
N827        C831   1.344       .  A
N827       Cu835   2.066       .  S
N828        C829   1.344       .  A
N828       Cu834   2.066       .  S
C829        C830   1.378       .  A
C829        H832   1.082       .  S
C830        C831   1.378       .  A
C830       C1125   1.431       .  S
C831        H833   1.082       .  S
Cu834       N837   2.066       .  S
Cu835       N845   2.066       .  S
Cu836       N838   2.066       .  S
Cu836       N844   2.066       .  S
N837        N838   1.323       .  A
N837        C841   1.344       .  A
N838        C839   1.344       .  A
C839        C840   1.378       .  A
C839        H842   1.082       .  S
C840        C841   1.378       .  A
C840       C1119   1.431       .  S
C841        H843   1.082       .  S
N844        N845   1.323       .  A
N844        C848   1.344       .  A
N845        C846   1.344       .  A
C846        C847   1.378       .  A
C846        H849   1.082       .  S
C847        C848   1.378       .  A
C847       C1149   1.431       .  S
C848        H850   1.082       .  S
N851        N852   1.323       .  A
N851        C855   1.344       .  A
N851       Cu859   2.066       .  S
N852        C853   1.344       .  A
N852       Cu858   2.066       .  S
C853        C854   1.378       .  A
C853        H856   1.082       .  S
C854        C855   1.378       .  A
C854       C1115   1.431       .  S
C855        H857   1.082       .  S
Cu858       N861   2.066       .  S
Cu859       N869   2.066       .  S
Cu860       N862   2.066       .  S
Cu860       N868   2.066       .  S
N861        N862   1.323       .  A
N861        C865   1.344       .  A
N862        C863   1.344       .  A
C863        C864   1.378       .  A
C863        H866   1.082       .  S
C864        C865   1.378       .  A
C864       C1118   1.431       .  S
C865        H867   1.082       .  S
N868        N869   1.323       .  A
N868        C872   1.344       .  A
N869        C870   1.344       .  A
C870        C871   1.378       .  A
C870        H873   1.082       .  S
C871        C872   1.378       .  A
C871       C1113   1.431       .  S
C872        H874   1.082       .  S
N875        N876   1.323       .  A
N875        C879   1.344       .  A
N875       Cu883   2.066       .  S
N876        C877   1.344       .  A
N876       Cu882   2.066       .  S
C877        C878   1.378       .  A
C877        H880   1.082       .  S
C878        C879   1.378       .  A
C878       C1214   1.431       .  S
C879        H881   1.082       .  S
Cu882       N885   2.066       .  S
Cu883       N893   2.066       .  S
Cu884       N886   2.066       .  S
Cu884       N892   2.066       .  S
N885        N886   1.323       .  A
N885        C889   1.344       .  A
N886        C887   1.344       .  A
C887        C888   1.378       .  A
C887        H890   1.082       .  S
C888        C889   1.378       .  A
C888       C1112   1.431       .  S
C889        H891   1.082       .  S
N892        N893   1.323       .  A
N892        C896   1.344       .  A
N893        C894   1.344       .  A
C894        C895   1.378       .  A
C894        H897   1.082       .  S
C895        C896   1.378       .  A
C895       C1189   1.431       .  S
C896        H898   1.082       .  S
N899        N900   1.323       .  A
N899        C903   1.344       .  A
N899       Cu907   2.066       .  S
N900        C901   1.344       .  A
N900       Cu906   2.066       .  S
C901        C902   1.378       .  A
C901        H904   1.082       .  S
C902        C903   1.378       .  A
C902       C1105   1.431       .  S
C903        H905   1.082       .  S
Cu906       N909   2.066       .  S
Cu907       N917   2.066       .  S
Cu908       N910   2.066       .  S
Cu908       N916   2.066       .  S
N909        N910   1.323       .  A
N909        C913   1.344       .  A
N910        C911   1.344       .  A
C911        C912   1.378       .  A
C911        H914   1.082       .  S
C912        C913   1.378       .  A
C912       C1110   1.431       .  S
C913        H915   1.082       .  S
N916        N917   1.323       .  A
N916        C920   1.344       .  A
N917        C918   1.344       .  A
C918        C919   1.378       .  A
C918        H921   1.082       .  S
C919        C920   1.378       .  A
C919       C1108   1.431       .  S
C920        H922   1.082       .  S
O923       Cu931   2.003   1_554  S
O923        C933   1.276       .  A
O924       Cu931   2.003       .  S
O924        C934   1.276       .  A
O925       Cu931   2.003   1_554  S
O925        C935   1.276       .  A
O926       Cu931   2.003       .  S
O926        C936   1.276       .  A
O927       Cu932   2.003       .  S
O927        C936   1.276       .  A
O928       Cu932   2.003   1_554  S
O928        C935   1.276       .  A
O929       Cu932   2.003       .  S
O929        C934   1.276       .  A
O930       Cu932   2.003   1_554  S
O930        C933   1.276       .  A
Cu931      Cu932   2.382       .  S
C933       C1120   1.429       .  S
C934       C1106   1.429       .  S
C935       C1114   1.429       .  S
C936       C1111   1.429       .  S
O937       Cu945   2.003       .  S
O937        C947   1.276       .  A
O938       Cu945   2.003       .  S
O938        C948   1.276       .  A
O939       Cu945   2.003       .  S
O939        C949   1.276       .  A
O940       Cu945   2.003       .  S
O940        C950   1.276       .  A
O941       Cu946   2.003       .  S
O941        C950   1.276       .  A
O942       Cu946   2.003       .  S
O942        C949   1.276       .  A
O943       Cu946   2.003       .  S
O943        C948   1.276       .  A
O944       Cu946   2.003       .  S
O944        C947   1.276       .  A
Cu945      Cu946   2.382       .  S
C947       C1121   1.429       .  S
C948       C1116   1.429       .  S
C949       C1169   1.429       .  S
C950       C1140   1.429       .  S
O951       Cu959   2.003       .  S
O951        C961   1.276       .  A
O952       Cu959   2.003       .  S
O952        C962   1.276       .  A
O953       Cu959   2.003       .  S
O953        C963   1.276       .  A
O954       Cu959   2.003       .  S
O954        C964   1.276       .  A
O955       Cu960   2.003       .  S
O955        C964   1.276       .  A
O956       Cu960   2.003       .  S
O956        C963   1.276       .  A
O957       Cu960   2.003       .  S
O957        C962   1.276       .  A
O958       Cu960   2.003       .  S
O958        C961   1.276       .  A
Cu959      Cu960   2.382       .  S
C961       C1166   1.429       .  S
C962       C1117   1.429       .  S
C963       C1173   1.429       .  S
C964       C1161   1.430       .  S
O965       Cu973   2.003       .  S
O965        C975   1.276       .  A
O966       Cu973   2.003       .  S
O966        C976   1.276       .  A
O967       Cu973   2.002       .  S
O967        C977   1.276       .  A
O968       Cu973   2.003       .  S
O968        C978   1.276       .  A
O969       Cu974   2.003       .  S
O969        C978   1.276       .  A
O970       Cu974   2.003       .  S
O970        C977   1.276       .  A
O971       Cu974   2.003       .  S
O971        C976   1.276       .  A
O972       Cu974   2.003       .  S
O972        C975   1.276       .  A
Cu973      Cu974   2.382       .  S
C975       C1142   1.429       .  S
C976       C1164   1.429       .  S
C977       C1146   1.429       .  S
C978       C1137   1.429       .  S
O979       Cu987   2.003       .  S
O979        C989   1.276       .  A
O980       Cu987   2.003       .  S
O980        C990   1.276       .  A
O981       Cu987   2.003       .  S
O981        C991   1.276       .  A
O982       Cu987   2.003       .  S
O982        C992   1.276       .  A
O983       Cu988   2.003       .  S
O983        C992   1.276       .  A
O984       Cu988   2.003       .  S
O984        C991   1.276       .  A
O985       Cu988   2.002       .  S
O985        C990   1.276       .  A
O986       Cu988   2.002       .  S
O986        C989   1.276       .  A
Cu987      Cu988   2.382       .  S
C989       C1124   1.429       .  S
C990       C1222   1.429       .  S
C991       C1155   1.429       .  S
C992       C1251   1.429       .  S
O993      Cu1001   2.003       .  S
O993       C1003   1.276       .  A
O994      Cu1001   2.003       .  S
O994       C1004   1.276       .  A
O995      Cu1001   2.003       .  S
O995       C1005   1.276       .  A
O996      Cu1001   2.002       .  S
O996       C1006   1.276       .  A
O997      Cu1002   2.003       .  S
O997       C1006   1.276       .  A
O998      Cu1002   2.003       .  S
O998       C1005   1.276       .  A
O999      Cu1002   2.002       .  S
O999       C1004   1.276       .  A
O1000     Cu1002   2.002       .  S
O1000      C1003   1.276       .  A
Cu1001    Cu1002   2.382       .  S
C1003      C1168   1.429       .  S
C1004      C1198   1.429       .  S
C1005      C1132   1.429       .  S
C1006      C1256   1.429       .  S
O1007     Cu1015   2.003       .  S
O1007      C1017   1.276       .  A
O1008     Cu1015   2.003       .  S
O1008      C1018   1.276       .  A
O1009     Cu1015   2.002       .  S
O1009      C1019   1.276       .  A
O1010     Cu1015   2.002       .  S
O1010      C1020   1.276       .  A
O1011     Cu1016   2.002       .  S
O1011      C1020   1.276       .  A
O1012     Cu1016   2.003       .  S
O1012      C1019   1.276       .  A
O1013     Cu1016   2.003       .  S
O1013      C1018   1.276       .  A
O1014     Cu1016   2.003       .  S
O1014      C1017   1.276       .  A
Cu1015    Cu1016   2.382       .  S
C1017      C1109   1.429       .  S
C1018      C1249   1.429       .  S
C1019      C1144   1.429       .  S
C1020      C1208   1.429       .  S
O1021     Cu1029   2.002       .  S
O1021      C1031   1.276       .  A
O1022     Cu1029   2.003       .  S
O1022      C1032   1.276       .  A
O1023     Cu1029   2.003       .  S
O1023      C1033   1.276       .  A
O1024     Cu1029   2.003       .  S
O1024      C1034   1.276       .  A
O1025     Cu1030   2.003       .  S
O1025      C1034   1.276       .  A
O1026     Cu1030   2.003       .  S
O1026      C1033   1.276       .  A
O1027     Cu1030   2.003       .  S
O1027      C1032   1.276       .  A
O1028     Cu1030   2.003       .  S
O1028      C1031   1.276       .  A
Cu1029    Cu1030   2.382       .  S
C1031      C1257   1.429       .  S
C1032      C1130   1.429       .  S
C1033      C1246   1.429       .  S
C1034      C1175   1.429       .  S
O1035     Cu1043   2.002       .  S
O1035      C1045   1.276       .  A
O1036     Cu1043   2.002       .  S
O1036      C1046   1.276       .  A
O1037     Cu1043   2.003       .  S
O1037      C1047   1.276       .  A
O1038     Cu1043   2.003       .  S
O1038      C1048   1.276       .  A
O1039     Cu1044   2.002       .  S
O1039      C1048   1.276       .  A
O1040     Cu1044   2.003       .  S
O1040      C1047   1.276       .  A
O1041     Cu1044   2.003       .  S
O1041      C1046   1.276       .  A
O1042     Cu1044   2.003       .  S
O1042      C1045   1.276       .  A
Cu1043    Cu1044   2.382       .  S
C1045      C1148   1.429       .  S
C1046      C1183   1.429       .  S
C1047      C1107   1.429       .  S
C1048      C1254   1.429       .  S
O1049     Cu1057   2.003       .  S
O1049      C1059   1.276       .  A
O1050     Cu1057   2.003       .  S
O1050      C1060   1.276       .  A
O1051     Cu1057   2.003       .  S
O1051      C1061   1.276       .  A
O1052     Cu1057   2.003       .  S
O1052      C1062   1.276       .  A
O1053     Cu1058   2.003       .  S
O1053      C1062   1.276       .  A
O1054     Cu1058   2.003       .  S
O1054      C1061   1.276       .  A
O1055     Cu1058   2.003       .  S
O1055      C1060   1.276       .  A
O1056     Cu1058   2.003       .  S
O1056      C1059   1.276       .  A
Cu1057    Cu1058   2.382       .  S
C1059      C1259   1.429       .  S
C1060      C1154   1.429       .  S
C1061      C1232   1.429       .  S
C1062      C1172   1.429       .  S
O1063     Cu1071   2.003       .  S
O1063      C1073   1.276       .  A
O1064     Cu1071   2.003       .  S
O1064      C1074   1.276       .  A
O1065     Cu1071   2.002       .  S
O1065      C1075   1.276       .  A
O1066     Cu1071   2.002       .  S
O1066      C1076   1.276       .  A
O1067     Cu1072   2.002       .  S
O1067      C1076   1.276       .  A
O1068     Cu1072   2.002       .  S
O1068      C1075   1.276       .  A
O1069     Cu1072   2.003       .  S
O1069      C1074   1.276       .  A
O1070     Cu1072   2.003       .  S
O1070      C1073   1.276       .  A
Cu1071    Cu1072   2.382       .  S
C1073      C1248   1.429       .  S
C1074      C1290   1.429       .  S
C1075      C1234   1.429       .  S
C1076      C1284   1.429       .  S
O1077     Cu1085   2.002       .  S
O1077      C1087   1.276       .  A
O1078     Cu1085   2.002       .  S
O1078      C1088   1.276       .  A
O1079     Cu1085   2.002       .  S
O1079      C1089   1.276       .  A
O1080     Cu1085   2.002       .  S
O1080      C1090   1.276       .  A
O1081     Cu1086   2.003       .  S
O1081      C1090   1.276       .  A
O1082     Cu1086   2.003       .  S
O1082      C1089   1.276       .  A
O1083     Cu1086   2.003       .  S
O1083      C1088   1.276       .  A
O1084     Cu1086   2.003       .  S
O1084      C1087   1.276       .  A
Cu1085    Cu1086   2.382       .  S
C1087      C1200   1.429       .  S
C1088      C1296   1.429       .  S
C1089      C1186   1.429       .  S
C1090      C1282   1.429       .  S
O1091     Cu1099   2.002       .  S
O1091      C1101   1.276       .  A
O1092     Cu1099   2.002       .  S
O1092      C1102   1.276       .  A
O1093     Cu1099   2.003       .  S
O1093      C1103   1.276       .  A
O1094     Cu1099   2.002       .  S
O1094      C1104   1.276       .  A
O1095     Cu1100   2.002       .  S
O1095      C1104   1.276       .  A
O1096     Cu1100   2.003       .  S
O1096      C1103   1.276       .  A
O1097     Cu1100   2.002       .  S
O1097      C1102   1.276       .  A
O1098     Cu1100   2.002       .  S
O1098      C1101   1.276       .  A
Cu1099    Cu1100   2.382       .  S
C1101      C1210   1.429       .  S
C1102      C1288   1.429       .  S
C1103      C1224   1.429       .  S
C1104      C1294   1.429       .  S
C1105      C1106   1.202       .  T
C1107      C1108   1.202       .  T
C1109      C1110   1.202       .  T
C1111      C1112   1.202       .  T
C1113      C1114   1.202       .  T
C1115      C1116   1.202       .  T
C1117      C1118   1.202       .  T
C1119      C1120   1.202       .  T
C1121      C1122   1.202       .  T
C1123      C1124   1.202       .  T
C1125      C1126   1.202       .  T
C1127      C1128   1.202       .  T
C1129      C1130   1.202       .  T
C1131      C1132   1.202       .  T
C1133      C1134   1.202       .  T
C1135      C1136   1.202       .  T
C1137      C1138   1.202       .  T
C1139      C1140   1.202       .  T
C1141      C1142   1.202       .  T
C1143      C1144   1.202       .  T
C1145      C1146   1.202       .  T
C1147      C1148   1.202       .  T
C1149      C1150   1.202       .  T
C1151      C1152   1.202       .  T
C1153      C1154   1.202       .  T
C1155      C1156   1.202       .  T
C1157      C1158   1.202       .  T
C1159      C1160   1.202       .  T
C1161      C1162   1.203       .  T
C1163      C1164   1.203       .  T
C1165      C1166   1.202       .  T
C1167      C1168   1.202       .  T
C1169      C1170   1.202       .  T
C1171      C1172   1.202       .  T
C1173      C1174   1.203       .  T
C1175      C1176   1.202       .  T
C1177      C1178   1.202       .  T
C1179      C1180   1.202       .  T
C1181      C1182   1.202       .  T
C1183      C1184   1.202       .  T
C1185      C1186   1.202       .  T
C1187      C1188   1.202       .  T
C1189      C1190   1.202       .  T
C1191      C1192   1.202       .  T
C1193      C1194   1.202       .  T
C1195      C1196   1.202       .  T
C1197      C1198   1.202       .  T
C1199      C1200   1.202       .  T
C1201      C1202   1.202       .  T
C1203      C1204   1.202       .  T
C1205      C1206   1.202       .  T
C1207      C1208   1.202       .  T
C1209      C1210   1.202       .  T
C1211      C1212   1.202       .  T
C1213      C1214   1.202       .  T
C1215      C1216   1.202       .  T
C1217      C1218   1.202       .  T
C1219      C1220   1.202       .  T
C1221      C1222   1.202       .  T
C1223      C1224   1.202       .  T
C1225      C1226   1.202       .  T
C1227      C1228   1.202       .  T
C1229      C1230   1.202       .  T
C1231      C1232   1.202       .  T
C1233      C1234   1.202       .  T
C1235      C1236   1.202       .  T
C1237      C1238   1.202       .  T
C1239      C1240   1.202       .  T
C1241      C1242   1.202       .  T
C1243      C1244   1.202       .  T
C1245      C1246   1.202       .  T
C1247      C1248   1.202       .  T
C1249      C1250   1.202       .  T
C1251      C1252   1.202       .  T
C1253      C1254   1.202       .  T
C1255      C1256   1.202       .  T
C1257      C1258   1.202       .  T
C1259      C1260   1.202       .  T
C1261      C1262   1.202       .  T
C1263      C1264   1.202       .  T
C1265      C1266   1.202       .  T
C1267      C1268   1.202       .  T
C1269      C1270   1.202       .  T
C1271      C1272   1.202       .  T
C1273      C1274   1.202       .  T
C1275      C1276   1.202       .  T
C1277      C1278   1.202       .  T
C1279      C1280   1.202       .  T
C1281      C1282   1.202       .  T
C1283      C1284   1.202       .  T
C1285      C1286   1.202       .  T
C1287      C1288   1.202       .  T
C1289      C1290   1.202       .  T
C1291      C1292   1.202       .  T
C1293      C1294   1.202       .  T
C1295      C1296   1.202       .  T
