geometry optimzed in LAMMPS
_audit_creation_date              2020-12-01 
_audit_creation_method            'lammps2cif' 
_symmetry_space_group_name_H-M    'P1' 
_symmetry_Int_Tables_number       1 
_symmetry_cell_setting            triclinic 
loop_ 
_symmetry_equiv_pos_as_xyz 
  x,y,z 
_cell_length_a                    39.40887812 
_cell_length_b                    39.00731805152672 
_cell_length_c                    39.78343060908265 
_cell_angle_alpha                 89.9975716651041 
_cell_angle_beta                  89.81399845553891 
_cell_angle_gamma                 90.0034697542944 
loop_ 
_atom_site_label 
_atom_site_type_symbol 
_atom_site_fract_x 
_atom_site_fract_y 
_atom_site_fract_z 
_atom_site_charge 
O1          O  0.43830574  0.43635509  0.93585815    -0.74900
O2          O  0.46946653  0.46552344  0.89686449    -0.53800
C3          C  0.44701341  0.44328578  0.90531725     0.78900
O4          O  0.43224131  0.57410011  0.04690901    -0.59500
O5          O  0.46179006  0.54510848  0.08674557    -0.52500
C6          C  0.43945688  0.56721548  0.07768118     0.70900
O7          O  0.43063978  0.56808158  0.93362192    -0.74000
O8          O  0.46418192  0.54005622  0.89585667    -0.54600
C9          C  0.43976473  0.56060554  0.90341595     0.76900
O10         O  0.43989400  0.43621184  0.05033731    -0.59200
O11         O  0.46619651  0.47051548  0.08858518    -0.52300
C12         C  0.44654146  0.44559243  0.08066220     0.73500
Zr13       Zr  0.45459812  0.45313703  0.99298658     2.54700
O14         O  0.39314788  0.44773820  0.99505456    -0.79700
O15         O  0.46239800  0.39119619  0.99244407    -0.93200
Zr16       Zr  0.44862251  0.55516346  0.99074027     2.64700
O17         O  0.38694845  0.55254745  0.99363459    -0.98100
O18         O  0.44693612  0.61737198  0.98604465    -0.80200
O19         O  0.45094095  0.50330517  0.95953307    -0.83500
O20         O  0.45003908  0.50486015  0.02407053    -2.18200
O21         O  0.56826681  0.44218537  0.05160283    -0.66900
O22         O  0.53806302  0.47345105  0.08936976    -0.51500
C23         C  0.56019127  0.45045191  0.08183048     0.71800
O24         O  0.56888769  0.57495255  0.93516408    -0.59800
O25         O  0.53944867  0.54275244  0.89737488    -0.51800
C26         C  0.56161691  0.56553052  0.90502677     0.73600
O27         O  0.56444554  0.57977539  0.04819485    -0.71200
O28         O  0.53497309  0.54912657  0.08712296    -0.49900
C29         C  0.55668143  0.57217761  0.07872091     0.75000
O30         O  0.57394280  0.44245601  0.93892805    -0.66600
O31         O  0.54267169  0.46942404  0.89891068    -0.53800
C32         C  0.56634415  0.44881245  0.90817537     0.73400
Zr33       Zr  0.55531388  0.45988350  0.99456572     2.77500
O34         O  0.61626213  0.46991776  0.99762399    -0.97300
O35         O  0.56344964  0.39802320  0.99443762    -0.78100
Zr36       Zr  0.54915437  0.56136697  0.99176045     2.70100
O37         O  0.61061873  0.56629337  0.99450539    -0.79400
O38         O  0.54084441  0.62306888  0.98746159    -0.98500
Zr39       Zr  0.50279875  0.50544880  0.92886416     2.21500
Zr40       Zr  0.50074518  0.50902305  0.05613837     2.11100
O41         O  0.55260518  0.51147337  0.02562218    -2.47100
O42         O  0.55351050  0.50970768  0.96066779    -0.79200
O43         O  0.50436630  0.45651038  0.02611789    -0.71400
O44         O  0.49937403  0.55811609  0.95874488    -2.32300
O45         O  0.50560676  0.45456859  0.96158806    -2.28500
O46         O  0.49830573  0.56017104  0.02379145    -0.73100
H47         H  0.43030372  0.50402696  0.03852575     0.78900
H48         H  0.49859050  0.57731337  0.94344120     0.80000
H49         H  0.57181614  0.51287476  0.04058889     0.82200
H50         H  0.50706297  0.43446962  0.94749431     0.79800
H51         H  0.46829761  0.62365559  0.97443476     0.42800
H52         H  0.53347918  0.63031183  0.01019354     0.41800
H53         H  0.61491585  0.59110475  0.99752140     0.41500
H54         H  0.62000425  0.49111155  0.98442705     0.39400
H55         H  0.54706373  0.38931179  0.97767137     0.42500
H56         H  0.48394960  0.38748633  0.00464124     0.37300
H57         H  0.38908533  0.42278374  0.99724011     0.43400
H58         H  0.38187558  0.53779725  0.01326877     0.39900
H59         H  0.62059002  0.47676727  0.02118655     0.44800
H60         H  0.46781492  0.38532473  0.96882329     0.43500
H61         H  0.37994987  0.57582499  0.00078857     0.43600
H62         H  0.56398687  0.63259888  0.98489491     0.44000
O63         O  0.45481086  0.94334176  0.42853595    -0.74900
O64         O  0.48357937  0.90365981  0.45960921    -0.53800
C65         C  0.46199317  0.91240467  0.43714172     0.78900
O66         O  0.58574578  0.06183868  0.42909499    -0.59500
O67         O  0.55397539  0.09881659  0.46014422    -0.52500
C68         C  0.57625980  0.09228663  0.43750438     0.70900
O69         O  0.58494383  0.94579056  0.42359728    -0.74000
O70         O  0.55571111  0.90501954  0.45276649    -0.54600
C71         C  0.57678591  0.91445157  0.42989915     0.76900
O72         O  0.45294327  0.05942424  0.43140490    -0.59200
O73         O  0.48185179  0.09823700  0.46288372    -0.52300
C74         C  0.46026000  0.09033293  0.44006731     0.73500
Zr75       Zr  0.46946774  0.00112636  0.44642118     2.54700
O76         O  0.46977959  0.00235490  0.38519578    -0.79700
O77         O  0.40772249  0.00007606  0.44762493    -0.93200
Zr78       Zr  0.57008957  0.00308999  0.44352271     2.64700
O79         O  0.56415278  0.00563212  0.38262415    -0.98100
O80         O  0.63173079  0.00113681  0.43986854    -0.80200
O81         O  0.52038523  0.96898121  0.44350646    -0.83500
O82         O  0.51913392  0.03502750  0.44542705    -2.18200
O83         O  0.45410407  0.05443589  0.56556253    -0.66900
O84         O  0.48188608  0.09525492  0.53506380    -0.51500
C85         C  0.46065307  0.08576393  0.55780509     0.71800
O86         O  0.59281490  0.94292333  0.55649982    -0.59800
O87         O  0.56308794  0.90388823  0.52577038    -0.51800
C88         C  0.58614844  0.91212687  0.54698903     0.73600
O89         O  0.58767366  0.05854739  0.56163331    -0.71200
O90         O  0.55535444  0.09783740  0.53435600    -0.49900
C91         C  0.57825295  0.08957935  0.55578347     0.75000
O92         O  0.45613845  0.93917141  0.56129348    -0.66600
O93         O  0.48838506  0.90170315  0.53138375    -0.53800
C94         C  0.46534939  0.90857560  0.55324946     0.73400
Zr95       Zr  0.47166676  0.99777630  0.54661946     2.77500
O96         O  0.47262830  0.99558594  0.60774682    -0.97300
O97         O  0.40992314  0.99707799  0.54568271    -0.78100
Zr98       Zr  0.57284060  0.00049438  0.54381208     2.70100
O99         O  0.57142977  0.99718302  0.60490802    -0.79400
O100        O  0.63462065  0.00193835  0.54366249    -0.98500
Zr101      Zr  0.52238912  0.93597827  0.49361576     2.21500
Zr102      Zr  0.51952011  0.06503604  0.49742807     2.11100
O103        O  0.52147253  0.03174752  0.54731796    -2.47100
O104        O  0.52311708  0.96605417  0.54552488    -0.79200
O105        O  0.46872403  0.03233362  0.49760623    -0.71400
O106        O  0.57307582  0.96913621  0.49270548    -2.32300
O107        O  0.47033853  0.96674498  0.49558200    -2.28500
O108        O  0.57192068  0.03482327  0.49459630    -0.73100
H109        H  0.51843786  0.05060655  0.42657289     0.78900
H110        H  0.59294743  0.95477372  0.49134835     0.80000
H111        H  0.52148861  0.04609653  0.56714351     0.82200
H112        H  0.45105829  0.95145083  0.49570133     0.79800
H113        H  0.63660451  0.00071894  0.41543398     0.42800
H114        H  0.64060484  0.02373220  0.53235004     0.41800
H115        H  0.54941158  0.00751183  0.61137531     0.41500
H116        H  0.44860919  0.99205610  0.61427377     0.39400
H117        H  0.40377063  0.01324279  0.52750768     0.42500
H118        H  0.40128000  0.02005182  0.46160500     0.37300
H119        H  0.48146044  0.02398304  0.37916868     0.43400
H120        H  0.54539881  0.98955799  0.37756666     0.39900
H121        H  0.48392282  0.97362769  0.61323913     0.44800
H122        H  0.40187616  0.97992472  0.46161627     0.43500
H123        H  0.55455513  0.02858795  0.37794162     0.43600
H124        H  0.64084847  0.00556823  0.56749305     0.44000
O125        O  0.95352159  0.55824422  0.41686832    -0.74900
O126        O  0.91361759  0.53048135  0.44839967    -0.53800
C127        C  0.92258952  0.55069009  0.42438225     0.78900
O128        O  0.06463743  0.42319525  0.42141753    -0.59500
O129        O  0.10460415  0.45390134  0.44967845    -0.52500
C130        C  0.09554156  0.43056856  0.42861555     0.70900
O131        O  0.95155695  0.43017054  0.42049744    -0.74000
O132        O  0.91278500  0.45826258  0.45309206    -0.54600
C133        C  0.92106118  0.43735388  0.42953312     0.76900
O134        O  0.06836520  0.56371641  0.42248611    -0.59200
O135        O  0.10729825  0.53047348  0.44941572    -0.52300
C136        C  0.09905558  0.55449162  0.42902436     0.73500
Zr137      Zr  0.01064035  0.54555590  0.43649091     2.54700
O138        O  0.01438532  0.54208950  0.37546086    -0.79700
O139        O  0.00674199  0.60782714  0.43612044    -0.93200
Zr140      Zr  0.00890770  0.44441363  0.43696863     2.64700
O141        O  0.00813033  0.45183958  0.37619236    -0.98100
O142        O  0.00437504  0.38232817  0.43292577    -0.80200
O143        O  0.97681494  0.49550238  0.43711106    -0.83500
O144        O  0.04294706  0.49439466  0.43545830    -2.18200
O145        O  0.06860760  0.56645903  0.54692570    -0.66900
O146        O  0.10775504  0.53383689  0.51977033    -0.51500
C147        C  0.09941991  0.55859160  0.53949815     0.71800
O148        O  0.95454580  0.43261426  0.55840520    -0.59800
O149        O  0.91443246  0.46117074  0.52830132    -0.51800
C150        C  0.92362255  0.44064095  0.55189870     0.73600
O151        O  0.06818064  0.42859778  0.55379868    -0.71200
O152        O  0.10735577  0.45839177  0.52366699    -0.49900
C153        C  0.09900153  0.43650801  0.54636697     0.75000
O154        O  0.95526585  0.56035333  0.55764556    -0.66600
O155        O  0.91505554  0.53480629  0.52501457    -0.53800
C156        C  0.92434422  0.55443665  0.54926590     0.73400
Zr157      Zr  0.01139090  0.54616723  0.53629951     2.77500
O158        O  0.01623875  0.54528263  0.59735167    -0.97300
O159        O  0.00685349  0.60839179  0.53522201    -0.78100
Zr160      Zr  0.01088544  0.44413123  0.53652041     2.70100
O161        O  0.01397396  0.43804382  0.59730193    -0.79400
O162        O  0.00785654  0.38209032  0.52983464    -0.98500
Zr163      Zr  0.94547669  0.49608791  0.48819778     2.21500
Zr164      Zr  0.07502716  0.49401258  0.48604080     2.11100
O165        O  0.04373978  0.49499261  0.53726689    -2.47100
O166        O  0.97856942  0.49543450  0.53798061    -0.79200
O167        O  0.04365578  0.54604859  0.48602410    -0.71400
O168        O  0.97682001  0.44384558  0.48751457    -2.32300
O169        O  0.97802994  0.54753863  0.48683701    -2.28500
O170        O  0.04283201  0.44249135  0.48616347    -0.73100
H171        H  0.05758135  0.49406538  0.41596999     0.78900
H172        H  0.96172724  0.42445284  0.48786408     0.80000
H173        H  0.05861245  0.49532567  0.55653821     0.82200
H174        H  0.96359554  0.56742101  0.48681001     0.79800
H175        H  0.01317869  0.37381470  0.45465276     0.42800
H176        H  0.00337848  0.37338622  0.55279888     0.41800
H177        H  0.00095383  0.45776345  0.60621923     0.41500
H178        H  0.00983311  0.52163145  0.60376250     0.39400
H179        H  0.02515799  0.61592464  0.51980158     0.42500
H180        H  0.01678816  0.61477091  0.41431566     0.37300
H181        H  0.02566813  0.56363942  0.36849938     0.43400
H182        H  0.03178844  0.45751316  0.36989071     0.39900
H183        H  0.04082757  0.54662635  0.60215522     0.44800
H184        H  0.02345710  0.61538046  0.45310336     0.43500
H185        H  0.00432559  0.42849794  0.36719619     0.43600
H186        H  0.98645748  0.37775836  0.51759510     0.44000
C187        C  0.72854521  0.32872397  0.30789354     0.80600
N188        N  0.71253447  0.34360976  0.28151202    -0.77700
C189        C  0.68174209  0.33209988  0.27138056     0.83100
N190        N  0.66687105  0.30602233  0.28840372    -0.77600
C191        C  0.68244590  0.29113717  0.31490516     0.83200
N192        N  0.71335594  0.30255864  0.32455028    -0.79300
C193        C  0.73712852  0.67823650  0.30503753     0.80600
N194        N  0.72441256  0.70694933  0.31976404    -0.77700
C195        C  0.69544355  0.72161505  0.30826813     0.83100
N196        N  0.67911002  0.70679606  0.28205631    -0.77600
C197        C  0.69128822  0.67796301  0.26726789     0.83200
N198        N  0.72039962  0.66386800  0.27887928    -0.79300
C199        C  0.69088296  0.33017998  0.71954147     0.80600
N200        N  0.72106393  0.34108501  0.70700266    -0.77700
C201        C  0.73576964  0.32507007  0.68041016     0.83100
N202        N  0.71962986  0.29799357  0.66611308    -0.77600
C203        C  0.68938855  0.28668762  0.67827833     0.83200
N204        N  0.67533904  0.30285448  0.70509937    -0.79300
C205        C  0.33554379  0.72341790  0.32192229     0.80600
N206        N  0.30838130  0.70805714  0.33642636    -0.77700
C207        C  0.29303272  0.68107328  0.32139922     0.83100
N208        N  0.30511416  0.66976664  0.29142389    -0.77600
C209        C  0.33227351  0.68485627  0.27645571     0.83200
N210        N  0.34753552  0.71155359  0.29212670    -0.79300
C211        C  0.32672979  0.67712465  0.70690090     0.80600
N212        N  0.29777060  0.66594155  0.69201108    -0.77700
C213        C  0.28558313  0.68165191  0.66399979     0.83100
N214        N  0.30293622  0.70854090  0.65077573    -0.77600
C215        C  0.33176570  0.72004510  0.66543599     0.83200
N216        N  0.34356006  0.70415095  0.69334662    -0.79300
C217        C  0.33484072  0.32214767  0.71114061     0.80600
N218        N  0.30745412  0.33693900  0.69650456    -0.77700
C219        C  0.29280863  0.32289289  0.66889331     0.83100
N220        N  0.30637246  0.29383343  0.65551600    -0.77600
C221        C  0.33386727  0.27876573  0.66976655     0.83200
N222        N  0.34791605  0.29328522  0.69738608    -0.79300
C223        C  0.68298000  0.66751590  0.70680679     0.80600
N224        N  0.67006486  0.69508245  0.69063509    -0.77700
C225        C  0.68538746  0.70802568  0.66297309     0.83100
N226        N  0.71419879  0.69307071  0.65149118    -0.77600
C227        C  0.72746672  0.66526455  0.66712166     0.83200
N228        N  0.71170079  0.65244177  0.69484824    -0.79300
C229        C  0.34144252  0.28095692  0.31797415     0.80600
N230        N  0.31178580  0.29216244  0.33145287    -0.77700
C231        C  0.29422762  0.31768950  0.31626297     0.83100
N232        N  0.30691004  0.33245515  0.28811601    -0.77600
C233        C  0.33650638  0.32164262  0.27441367     0.83200
N234        N  0.35369573  0.29580861  0.28961366    -0.79300
C235        C  0.22924076  0.34708604  0.60163825    -0.01600
C236        C  0.21026490  0.37292323  0.61758153     0.07000
C237        C  0.21750151  0.38191661  0.65079081    -0.07600
C238        C  0.24371018  0.36572339  0.66834359     0.04400
C239        C  0.26356076  0.34006289  0.65225778    -0.14800
C240        C  0.25564409  0.33096909  0.61890802    -0.08100
C241        C  0.18195608  0.39008325  0.60022800     0.05400
C242        C  0.14934075  0.37642062  0.60358141    -0.09200
C243        C  0.12188569  0.39083104  0.58645508     0.00400
C244        C  0.12697464  0.41986157  0.56546977     0.00200
C245        C  0.15996984  0.43361271  0.56268665    -0.12800
C246        C  0.18729126  0.41898123  0.57979684     0.00700
C247        C  0.08927222  0.37443286  0.59048279     0.40000
C248        C  0.22058869  0.43397239  0.57599149     0.36600
C249        C  0.22183622  0.33668391  0.56759928     0.36400
C250        C  0.24861155  0.37552651  0.70299930     0.37100
N251        N  0.06323752  0.36111744  0.59384356    -0.43700
N252        N  0.24723535  0.44606345  0.57292209    -0.44100
N253        N  0.25229021  0.38349059  0.73077652    -0.41500
N254        N  0.21569365  0.32843539  0.54034839    -0.42900
H255        H  0.27026969  0.31142703  0.60600096     0.13200
H256        H  0.20237981  0.40151251  0.66310163     0.09700
H257        H  0.14546312  0.35402953  0.61931946     0.10800
H258        H  0.16462558  0.45596916  0.54713778     0.16600
C259        C  0.14078467  0.62458923  0.59620306    -0.01600
C260        C  0.17553288  0.61993601  0.58949687     0.07000
C261        C  0.18558333  0.59580782  0.56530435    -0.07600
C262        C  0.16165108  0.57577073  0.54826222     0.04400
C263        C  0.12656803  0.57973401  0.55547057    -0.14800
C264        C  0.11680317  0.60472148  0.57929068    -0.08100
C265        C  0.20194808  0.63847193  0.60876856     0.05400
C266        C  0.20430766  0.63291401  0.64351112    -0.09200
C267        C  0.23035786  0.64780174  0.66236025     0.00400
C268        C  0.25532566  0.66806442  0.64617281     0.00200
C269        C  0.25191668  0.67475595  0.61154268    -0.12800
C270        C  0.22547814  0.66034354  0.59290087     0.00700
C271        C  0.23009229  0.64256124  0.69828657     0.40000
C272        C  0.22274884  0.66868504  0.55763517     0.36600
C273        C  0.12906534  0.64973920  0.62023682     0.36400
C274        C  0.17425860  0.55138114  0.52392850     0.37100
N275        N  0.22974440  0.63853436  0.72710798    -0.43700
N276        N  0.22048262  0.67552873  0.52942455    -0.44100
N277        N  0.18457511  0.53186303  0.50450966    -0.41500
N278        N  0.11962935  0.66982832  0.63952306    -0.42900
H279        H  0.09022874  0.60870146  0.58524111     0.13200
H280        H  0.21240248  0.59213569  0.56021713     0.09700
H281        H  0.18587353  0.61652356  0.65589668     0.10800
H282        H  0.27033678  0.69075310  0.59867965     0.16600
C283        C  0.21515590  0.62522662  0.33028221    -0.01600
C284        C  0.20649970  0.62988427  0.36426925     0.07000
C285        C  0.22609704  0.65137781  0.38451515    -0.07600
C286        C  0.25446361  0.66826269  0.37145804     0.04400
C287        C  0.26329938  0.66398677  0.33709374    -0.14800
C288        C  0.24322351  0.64234795  0.31695013    -0.08100
C289        C  0.17838067  0.61085235  0.37991449     0.05400
C290        C  0.18327985  0.57618791  0.38735270    -0.09200
C291        C  0.15808994  0.55731894  0.40371115     0.00400
C292        C  0.12681923  0.57318710  0.41203613     0.00200
C293        C  0.12207375  0.60803948  0.40435688    -0.12800
C294        C  0.14779813  0.62705707  0.38891740     0.00700
C295        C  0.16527784  0.52183994  0.41131414     0.40000
C296        C  0.14256754  0.66320429  0.38306991     0.36600
C297        C  0.19562523  0.60303287  0.30865103     0.36400
C298        C  0.27435807  0.68852555  0.39451701     0.37100
N299        N  0.17153320  0.49356183  0.41754631    -0.43700
N300        N  0.13851678  0.69224209  0.37867643    -0.44100
N301        N  0.29014369  0.70463035  0.41324346    -0.41500
N302        N  0.18009809  0.58523339  0.29123439    -0.42900
H303        H  0.24935418  0.63866673  0.29060698     0.13200
H304        H  0.21956771  0.65431988  0.41088119     0.09700
H305        H  0.20717621  0.56402674  0.38082226     0.10800
H306        H  0.09852979  0.62069723  0.41117700     0.16600
C307        C  0.22991812  0.38194720  0.34627781    -0.01600
C308        C  0.20618763  0.36090098  0.36282108     0.07000
C309        C  0.21025172  0.32524232  0.36259151    -0.07600
C310        C  0.23848838  0.31035842  0.34697833     0.04400
C311        C  0.26306276  0.33153836  0.33151960    -0.14800
C312        C  0.25811518  0.36717850  0.33080234    -0.08100
C313        C  0.17729377  0.37605218  0.38095057     0.05400
C314        C  0.14584142  0.37765583  0.36498480    -0.09200
C315        C  0.11863790  0.39495981  0.37989702     0.00400
C316        C  0.12282299  0.41072069  0.41179765     0.00200
C317        C  0.15440537  0.40806825  0.42798219    -0.12800
C318        C  0.18156831  0.39111271  0.41274460     0.00700
C319        C  0.08770881  0.39737468  0.36071217     0.40000
C320        C  0.21384938  0.39004217  0.42978649     0.36600
C321        C  0.22585994  0.41874369  0.34514070     0.36400
C322        C  0.24096912  0.27343743  0.34606708     0.37100
N323        N  0.06339986  0.39882011  0.34454314    -0.43700
N324        N  0.23980660  0.38923475  0.44327529    -0.44100
N325        N  0.24285816  0.24384490  0.34512635    -0.41500
N326        N  0.22246910  0.44820022  0.34429659    -0.42900
H327        H  0.27671453  0.38364836  0.31877418     0.13200
H328        H  0.19148002  0.30913160  0.37482213     0.09700
H329        H  0.14292824  0.36631342  0.34025026     0.10800
H330        H  0.15809031  0.41958343  0.45251538     0.16600
C331        C  0.81092840  0.65777285  0.62098346    -0.01600
C332        C  0.81697581  0.62223987  0.62202682     0.07000
C333        C  0.79465512  0.60085831  0.63971943    -0.07600
C334        C  0.76563903  0.61417176  0.65527978     0.04400
C335        C  0.75897003  0.64975802  0.65363958    -0.14800
C336        C  0.78218533  0.67122390  0.63682508    -0.08100
C337        C  0.84519632  0.60634847  0.60314995     0.05400
C338        C  0.87207670  0.59153733  0.62094113    -0.09200
C339        C  0.89822541  0.57445956  0.60395990     0.00400
C340        C  0.89749711  0.57205149  0.56850469     0.00200
C341        C  0.87041290  0.58675309  0.55083024    -0.12800
C342        C  0.84436511  0.60383515  0.56782396     0.00700
C343        C  0.92436500  0.55811408  0.62363869     0.40000
C344        C  0.81654407  0.61770005  0.54859656     0.36600
C345        C  0.83350403  0.68077437  0.60331627     0.36400
C346        C  0.74222797  0.59027254  0.67048177     0.37100
N347        N  0.94507287  0.54492322  0.63964003    -0.43700
N348        N  0.79424784  0.62882295  0.53319979    -0.44100
N349        N  0.72363375  0.57071937  0.68233685    -0.41500
N350        N  0.85146041  0.69921366  0.58900980    -0.42900
H351        H  0.77762924  0.69862060  0.63558233     0.13200
H352        H  0.79926021  0.57343850  0.64019883     0.09700
H353        H  0.87232300  0.59293727  0.64817557     0.10800
H354        H  0.86963861  0.58493246  0.52363175     0.16600
C355        C  0.80117241  0.34638393  0.61385479    -0.01600
C356        C  0.82119632  0.37102555  0.63024998     0.07000
C357        C  0.81546368  0.37824217  0.66420902    -0.07600
C358        C  0.78913259  0.36209592  0.68179894     0.04400
C359        C  0.76718458  0.33909550  0.66480023    -0.14800
C360        C  0.77432233  0.33081101  0.63104635    -0.08100
C361        C  0.84816632  0.38962312  0.61209559     0.05400
C362        C  0.84080400  0.42176136  0.59825071    -0.09200
C363        C  0.86492867  0.43921783  0.57883772     0.00400
C364        C  0.89714070  0.42420818  0.57301570     0.00200
C365        C  0.90455424  0.39231494  0.58793149    -0.12800
C366        C  0.88038070  0.37502615  0.60727538     0.00700
C367        C  0.85596513  0.47260573  0.56593825     0.40000
C368        C  0.88888581  0.34213949  0.62164050     0.36600
C369        C  0.80746170  0.33719965  0.57921374     0.36400
C370        C  0.78628525  0.36889312  0.71736678     0.37100
N371        N  0.84848940  0.49931751  0.55569672    -0.43700
N372        N  0.89549697  0.31577043  0.63322725    -0.44100
N373        N  0.78446009  0.37435917  0.74591073    -0.41500
N374        N  0.81276260  0.32982659  0.55151461    -0.42900
H375        H  0.75837373  0.31283751  0.61759084     0.13200
H376        H  0.83171811  0.39648110  0.67699138     0.09700
H377        H  0.81595428  0.43301422  0.60233049     0.10800
H378        H  0.92911366  0.38041046  0.58396671     0.16600
C379        C  0.87270656  0.40219027  0.35613998    -0.01600
C380        C  0.84288873  0.39048081  0.37175510     0.07000
C381        C  0.83854015  0.39387902  0.40650935    -0.07600
C382        C  0.86367930  0.40906657  0.42607583     0.04400
C383        C  0.89378493  0.42079030  0.41053853    -0.14800
C384        C  0.89804725  0.41703822  0.37564485    -0.08100
C385        C  0.81555618  0.37474552  0.35232787     0.05400
C386        C  0.81255869  0.33905105  0.35251930    -0.09200
C387        C  0.78514822  0.32316815  0.33685146     0.00400
C388        C  0.76026574  0.34344356  0.32078593     0.00200
C389        C  0.76432211  0.37920791  0.31945060    -0.12800
C390        C  0.79165848  0.39498245  0.33530945     0.00700
C391        C  0.78349719  0.28618580  0.33751083     0.40000
C392        C  0.79394947  0.43194943  0.33520637     0.36600
C393        C  0.87758808  0.39942952  0.32024252     0.36400
C394        C  0.85815621  0.41155633  0.46190977     0.37100
N395        N  0.78252260  0.25654141  0.33816580    -0.43700
N396        N  0.79588772  0.46155309  0.33530125    -0.44100
N397        N  0.85348697  0.41348652  0.49058358    -0.41500
N398        N  0.88134439  0.39732053  0.29145475    -0.42900
H399        H  0.92097847  0.42628685  0.36350454     0.13200
H400        H  0.81536505  0.38473636  0.41827074     0.09700
H401        H  0.83138403  0.32368587  0.36547095     0.10800
H402        H  0.74529377  0.39503739  0.30738204     0.16600
C403        C  0.87723987  0.61933941  0.37503474    -0.01600
C404        C  0.84616039  0.60354353  0.36744777     0.07000
C405        C  0.84012203  0.56979612  0.37782154    -0.07600
C406        C  0.86446274  0.55180867  0.39638311     0.04400
C407        C  0.89580422  0.56764691  0.40424869    -0.14800
C408        C  0.90190021  0.60124226  0.39285692    -0.08100
C409        C  0.81857676  0.62296701  0.35127948     0.05400
C410        C  0.81614787  0.62341608  0.31615971    -0.07100
C411        C  0.79046764  0.64218893  0.30029337     0.00400
C412        C  0.76655149  0.66047770  0.31992411     0.00200
C413        C  0.76955713  0.66025923  0.35505936    -0.12800
C414        C  0.79538323  0.64189107  0.37077812     0.00700
C415        C  0.79009186  0.64331393  0.26400409     0.40000
C416        C  0.79768426  0.64284698  0.40698254     0.36600
C417        C  0.88367093  0.65460937  0.36603471     0.36400
C418        C  0.85626982  0.51737229  0.40683124     0.37100
N419        N  0.78999757  0.64435659  0.23492842    -0.43700
N420        N  0.79961478  0.64375096  0.43598497    -0.44100
N421        N  0.84877259  0.48995999  0.41508440    -0.41500
N422        N  0.88855141  0.68297810  0.35902645    -0.42900
H423        H  0.92560282  0.61392294  0.39890470     0.13200
H424        H  0.81595741  0.55783545  0.37211364     0.09700
H425        H  0.83452283  0.60935874  0.30119831     0.10800
H426        H  0.75115774  0.67376194  0.37041516     0.16600
C427        C  0.67621371  0.20745268  0.62495667    -0.01600
C428        C  0.64098856  0.20221325  0.62752842     0.07000
C429        C  0.62138184  0.22438261  0.64727466    -0.07600
C430        C  0.63632892  0.25187738  0.66432248     0.04400
C431        C  0.67185611  0.25744803  0.66173423    -0.14800
C432        C  0.69130219  0.23483679  0.64193000    -0.08100
C433        C  0.62417674  0.17374458  0.60957622     0.05400
C434        C  0.62984801  0.14011058  0.62039763    -0.09200
C435        C  0.61518915  0.11228147  0.60366531     0.00400
C436        C  0.59452005  0.11796337  0.57502636     0.00200
C437        C  0.58862408  0.15203563  0.56474230    -0.12800
C438        C  0.60310246  0.17974066  0.58173989     0.00700
C439        C  0.62146054  0.07853804  0.61720127     0.40000
C440        C  0.59640744  0.21407488  0.56986756     0.36600
C441        C  0.69722095  0.18547094  0.60438749     0.36400
C442        C  0.61412521  0.27432049  0.68310179     0.37100
N443        N  0.62655470  0.05157506  0.62822184    -0.43700
N444        N  0.59095950  0.24158787  0.56042918    -0.44100
N445        N  0.59606131  0.29212937  0.69803922    -0.41500
N446        N  0.71394934  0.16780557  0.58785855    -0.42900
H447        H  0.71848368  0.23848809  0.63958897     0.13200
H448        H  0.59420729  0.22027515  0.64913747     0.09700
H449        H  0.64577976  0.13564426  0.64215552     0.10800
H450        H  0.57270993  0.15725207  0.54323073     0.16600
C451        C  0.40278658  0.21549259  0.64719929    -0.01600
C452        C  0.38645805  0.19394263  0.62401103     0.07000
C453        C  0.35207804  0.19911794  0.61670683    -0.07600
C454        C  0.33390650  0.22593466  0.63175198     0.04400
C455        C  0.35055989  0.24847408  0.65425065    -0.14800
C456        C  0.38490717  0.24245492  0.66192218    -0.08100
C457        C  0.40506032  0.16613873  0.60681946     0.05400
C458        C  0.41509957  0.13737282  0.62535684    -0.09200
C459        C  0.43330719  0.11079333  0.61009505     0.00400
C460        C  0.44184847  0.11303172  0.57559608     0.00200
C461        C  0.43194578  0.14210629  0.55724051    -0.12800
C462        C  0.41353118  0.16846107  0.57249518     0.00700
C463        C  0.44382412  0.08235764  0.63082647     0.40000
C464        C  0.40403181  0.19785733  0.55258066     0.36600
C465        C  0.43813212  0.21106503  0.65567132     0.36400
C466        C  0.29819169  0.22879292  0.62427757     0.37100
N467        N  0.45207135  0.05983301  0.64787537    -0.43700
N468        N  0.39639215  0.22138280  0.53658584    -0.44100
N469        N  0.26954608  0.23072926  0.61823395    -0.41500
N470        N  0.46640989  0.20767856  0.66268337    -0.42900
H471        H  0.39829135  0.25928607  0.67904020     0.13200
H472        H  0.33943516  0.18204677  0.59923280     0.09700
H473        H  0.40878437  0.13582266  0.65187833     0.10800
H474        H  0.43823939  0.14407319  0.53073757     0.16600
C475        C  0.38294846  0.23118333  0.38771713    -0.01600
C476        C  0.39833874  0.20401621  0.36996404     0.07000
C477        C  0.39536300  0.20242427  0.33488799    -0.07600
C478        C  0.37714159  0.22737404  0.31734858     0.04400
C479        C  0.36123500  0.25425527  0.33516617    -0.14800
C480        C  0.36440802  0.25591662  0.37024314    -0.08100
C481        C  0.41493039  0.17529894  0.38765191     0.05400
C482        C  0.39959695  0.14297787  0.38617415    -0.09200
C483        C  0.41368086  0.11486032  0.40278589     0.00400
C484        C  0.44365337  0.11906719  0.42196888     0.00200
C485        C  0.45907876  0.15166313  0.42302502    -0.12800
C486        C  0.44527538  0.17950543  0.40571773     0.00700
C487        C  0.39651416  0.08233952  0.39943462     0.40000
C488        C  0.46340608  0.21168214  0.40576568     0.36600
C489        C  0.38499677  0.23370855  0.42386717     0.36400
C490        C  0.37373185  0.22383599  0.28137565     0.37100
N491        N  0.38268167  0.05637676  0.39624537    -0.43700
N492        N  0.47818456  0.23732029  0.40572125    -0.44100
N493        N  0.37089756  0.22105443  0.25255844    -0.41500
N494        N  0.38675594  0.23593142  0.45281447    -0.42900
H495        H  0.35245559  0.27667937  0.38402733     0.13200
H496        H  0.40685341  0.18127179  0.32128846     0.09700
H497        H  0.37636299  0.13976434  0.37194619     0.10800
H498        H  0.48254317  0.15536625  0.43673009     0.16600
C499        C  0.62491053  0.14226059  0.37145378    -0.01600
C500        C  0.62132396  0.17620992  0.38290437     0.07000
C501        C  0.60212906  0.18291342  0.41175028    -0.07600
C502        C  0.58705263  0.15633502  0.42987649     0.04400
C503        C  0.59158793  0.12180977  0.41932052    -0.14800
C504        C  0.61046682  0.11542036  0.38984007    -0.08100
C505        C  0.63730010  0.20537557  0.36532181     0.05400
C506        C  0.61647362  0.23126712  0.35232886    -0.09200
C507        C  0.63053915  0.25982092  0.33634316     0.00400
C508        C  0.66617429  0.26242835  0.33284796     0.00200
C509        C  0.68692979  0.23683110  0.34664062    -0.12800
C510        C  0.67283491  0.20855214  0.36297337     0.00700
C511        C  0.60787555  0.28664043  0.32529164     0.40000
C512        C  0.69532534  0.18356116  0.37777826     0.36600
C513        C  0.64251263  0.13451172  0.34046307     0.36400
C514        C  0.56706742  0.16589335  0.45890075     0.37100
N515        N  0.58974967  0.30820396  0.31657133    -0.43700
N516        N  0.71328387  0.16343384  0.38955847    -0.44100
N517        N  0.55075897  0.17387722  0.48183822    -0.41500
N518        N  0.65666754  0.12847671  0.31562720    -0.42900
H519        H  0.61356859  0.08943054  0.38066701     0.13200
H520        H  0.59906296  0.20918032  0.42023872     0.09700
H521        H  0.58913305  0.22923247  0.35495183     0.10800
H522        H  0.71427599  0.23872441  0.34444323     0.16600
C523        C  0.40750946  0.77146729  0.63663713    -0.01600
C524        C  0.39207012  0.79895797  0.61959839     0.07000
C525        C  0.35660035  0.80068032  0.61774405    -0.07600
C526        C  0.33632092  0.77556741  0.63275392     0.04400
C527        C  0.35171546  0.74789097  0.64983139    -0.14800
C528        C  0.38729689  0.74631252  0.65166715    -0.08100
C529        C  0.41223607  0.82663937  0.60390825     0.05400
C530        C  0.43248995  0.81914020  0.57591514    -0.09200
C531        C  0.45029452  0.84504809  0.55910417     0.00400
C532        C  0.44792182  0.87951891  0.57046213     0.00200
C533        C  0.42779150  0.88659982  0.59899112    -0.12800
C534        C  0.41015764  0.86056725  0.61568631     0.00700
C535        C  0.46987253  0.83519757  0.52989568     0.40000
C536        C  0.39043088  0.86902254  0.64522600     0.36600
C537        C  0.44392525  0.76884703  0.63961113     0.36400
C538        C  0.29994216  0.77974462  0.63131531     0.37100
N539        N  0.48556243  0.82715404  0.50654780    -0.43700
N540        N  0.37456831  0.87537282  0.66895268    -0.44100
N541        N  0.27082188  0.78335725  0.63012177    -0.41500
N542        N  0.47308844  0.76656416  0.64208965    -0.42900
H543        H  0.39943357  0.72513098  0.66457272     0.13200
H544        H  0.34475005  0.82195551  0.60470917     0.09700
H545        H  0.43385053  0.79295845  0.56679527     0.10800
H546        H  0.42577415  0.91257155  0.60850112     0.16600
C547        C  0.63120983  0.86012544  0.61280936    -0.01600
C548        C  0.63574223  0.82875161  0.59602606     0.07000
C549        C  0.62706174  0.82565333  0.56214704    -0.07600
C550        C  0.61243195  0.85307590  0.54504449     0.04400
C551        C  0.60572122  0.88405847  0.56235259    -0.14800
C552        C  0.61628000  0.88757214  0.59589354    -0.08100
C553        C  0.64881960  0.79841967  0.61350297     0.05400
C554        C  0.62686790  0.78005154  0.63447620    -0.09200
C555        C  0.63779752  0.75027109  0.65059647     0.00400
C556        C  0.67168086  0.73880132  0.64599175     0.00200
C557        C  0.69342328  0.75750274  0.62464397    -0.12800
C558        C  0.68217900  0.78699793  0.60833247     0.00700
C559        C  0.61316980  0.73181070  0.67059194     0.40000
C560        C  0.70522042  0.80534919  0.58651366     0.36600
C561        C  0.64150129  0.86450986  0.64734385     0.36400
C562        C  0.60550284  0.84873573  0.50968517     0.37100
N563        N  0.59326422  0.71718213  0.68653750    -0.43700
N564        N  0.72345844  0.82019196  0.56891053    -0.44100
N565        N  0.60038878  0.84473638  0.48133824    -0.41500
N566        N  0.64989924  0.86796050  0.67498327    -0.42900
H567        H  0.61181715  0.91136295  0.60930758     0.13200
H568        H  0.63144480  0.80157095  0.54918198     0.09700
H569        H  0.60092801  0.78879855  0.63779765     0.10800
H570        H  0.71943166  0.74931024  0.62076760     0.16600
C571        C  0.64528550  0.86719535  0.38227745    -0.01600
C572        C  0.62879410  0.83647482  0.37332315     0.07000
C573        C  0.59480620  0.83154087  0.38261579    -0.07600
C574        C  0.57713695  0.85657837  0.40071479     0.04400
C575        C  0.59365283  0.88742097  0.40982188    -0.14800
C576        C  0.62762486  0.89238190  0.40017270    -0.08100
C577        C  0.64685305  0.80852266  0.35549310     0.05400
C578        C  0.67484212  0.79316673  0.37098264    -0.09200
C579        C  0.69175473  0.76555503  0.35603285     0.00400
C580        C  0.68036618  0.75243825  0.32474827     0.00200
C581        C  0.65253335  0.76854989  0.30908308    -0.12800
C582        C  0.63579692  0.79618951  0.32413864     0.00700
C583        C  0.72002885  0.75121897  0.37421415     0.40000
C584        C  0.60741008  0.81156945  0.30687602     0.36600
C585        C  0.68024726  0.87352751  0.37325738     0.36400
C586        C  0.54213322  0.84976834  0.40918419     0.37100
N587        N  0.74265911  0.74025485  0.38924120    -0.43700
N588        N  0.58457929  0.82386006  0.29317980    -0.44100
N589        N  0.51420079  0.84360067  0.41586241    -0.41500
N590        N  0.70831691  0.87850380  0.36615723    -0.42900
H591        H  0.64068915  0.91577051  0.40721190     0.13200
H592        H  0.58216254  0.80776799  0.37604274     0.09700
H593        H  0.68314946  0.80247606  0.39530687     0.10800
H594        H  0.64343025  0.75945681  0.28499081     0.16600
C595        C  0.40742789  0.83460037  0.42486557    -0.01600
C596        C  0.40696804  0.83191237  0.38952747     0.07000
C597        C  0.42491507  0.85569830  0.36991130    -0.07600
C598        C  0.44345560  0.88191747  0.38504093     0.04400
C599        C  0.44356354  0.88483582  0.42030520    -0.14800
C600        C  0.42581246  0.86098988  0.43999061    -0.08100
C601        C  0.38881722  0.80388489  0.37242520     0.05400
C602        C  0.35333545  0.80256887  0.37440333    -0.09200
C603        C  0.33529183  0.77684023  0.35778649     0.00400
C604        C  0.35305283  0.75169228  0.33916338     0.00200
C605        C  0.38856558  0.75327810  0.33709445    -0.12800
C606        C  0.40650243  0.77917653  0.35340355     0.00700
C607        C  0.29866240  0.77798098  0.35879352     0.40000
C608        C  0.44304844  0.77976180  0.35049483     0.36600
C609        C  0.38989960  0.81024454  0.44604541     0.36400
C610        C  0.46389466  0.90410651  0.36412296     0.37100
N611        N  0.26931553  0.77901794  0.35940529    -0.43700
N612        N  0.47230702  0.78048477  0.34802584    -0.44100
N613        N  0.48065719  0.92162404  0.34747247    -0.41500
N614        N  0.37584252  0.79078973  0.46307671    -0.42900
H615        H  0.42616061  0.86316393  0.46718055     0.13200
H616        H  0.42485350  0.85336710  0.34273948     0.09700
H617        H  0.33973874  0.82207367  0.38846480     0.10800
H618        H  0.40241740  0.73399493  0.32299692     0.16600
C619        C  0.58360886  0.42410027  0.17057283    -0.01600
C620        C  0.61076921  0.40152972  0.16485594     0.07000
C621        C  0.62089632  0.39391349  0.13208544    -0.07600
C622        C  0.60473492  0.40890217  0.10462986     0.04400
C623        C  0.57770609  0.43250788  0.10992897    -0.14800
C624        C  0.56739655  0.43948117  0.14324319    -0.08100
C625        C  0.62866934  0.38460045  0.19260165     0.05400
C626        C  0.61881350  0.35144924  0.20153445    -0.09200
C627        C  0.63612625  0.33346308  0.22644970     0.00400
C628        C  0.66372951  0.34913759  0.24333098     0.00200
C629        C  0.67381451  0.38237779  0.23368894    -0.12800
C630        C  0.65656407  0.40008157  0.20843888     0.00700
C631        C  0.62551806  0.29864444  0.23300179     0.40000
C632        C  0.66795950  0.43392037  0.19889256     0.36600
C633        C  0.57185259  0.43150241  0.20422175     0.36400
C634        C  0.61695747  0.39918353  0.07171532     0.37100
N635        N  0.61702536  0.27073163  0.23818931    -0.43700
N636        N  0.67699712  0.46101423  0.19108638    -0.44100
N637        N  0.62704922  0.39099837  0.04556791    -0.41500
N638        N  0.56241491  0.43729271  0.23120732    -0.42900
H639        H  0.54658429  0.45697299  0.14814538     0.13200
H640        H  0.64163945  0.37606553  0.12800157     0.09700
H641        H  0.59775966  0.33942236  0.18856141     0.10800
H642        H  0.69497719  0.39481643  0.24605967     0.16600
C643        C  0.62941403  0.66880089  0.19567933    -0.01600
C644        C  0.63253688  0.63387737  0.18726290     0.07000
C645        C  0.65558619  0.61325107  0.20481644    -0.07600
C646        C  0.67511356  0.62674891  0.23093629     0.04400
C647        C  0.67213476  0.66193097  0.23939419    -0.14800
C648        C  0.64921173  0.68248923  0.22137083    -0.08100
C649        C  0.61222527  0.61851642  0.15995578     0.05400
C650        C  0.61521525  0.63202506  0.12748118    -0.09200
C651        C  0.59642165  0.61860555  0.10086538     0.00400
C652        C  0.57488960  0.58997803  0.10634067     0.00200
C653        C  0.57179989  0.57680915  0.13920447    -0.12800
C654        C  0.58996250  0.59093282  0.16588206     0.00700
C655        C  0.59948791  0.63558206  0.06874257     0.40000
C656        C  0.58473657  0.57711174  0.19919207     0.36600
C657        C  0.60542359  0.69094412  0.17894764     0.36400
C658        C  0.69674065  0.60340878  0.24919901     0.37100
N659        N  0.60210384  0.64967586  0.04326937    -0.43700
N660        N  0.58043507  0.56601625  0.22584656    -0.44100
N661        N  0.71393673  0.58456661  0.26381028    -0.41500
N662        N  0.58624933  0.70868115  0.16548613    -0.42900
H663        H  0.64651249  0.70946300  0.22741720     0.13200
H664        H  0.65809511  0.58637627  0.19822158     0.09700
H665        H  0.63226915  0.65338857  0.12296416     0.10800
H666        H  0.55533798  0.55512649  0.14426697     0.16600
C667        C  0.40612471  0.58942879  0.16436901    -0.01600
C668        C  0.38771525  0.61965295  0.15828149     0.07000
C669        C  0.38566455  0.63273025  0.12565337    -0.07600
C670        C  0.40178403  0.61608980  0.09884906     0.04400
C671        C  0.42081069  0.58574504  0.10475423    -0.14800
C672        C  0.42245401  0.57279290  0.13778612    -0.08100
C673        C  0.37133359  0.63843771  0.18607306     0.05400
C674        C  0.38733442  0.66763132  0.19886409    -0.09200
C675        C  0.37477562  0.68411820  0.22755158     0.00400
C676        C  0.34550001  0.67099986  0.24408130     0.00200
C677        C  0.32871005  0.64263298  0.22979096    -0.12800
C678        C  0.34137403  0.62636654  0.20116930     0.00700
C679        C  0.39297379  0.71397602  0.23916726     0.40000
C680        C  0.32355489  0.59690314  0.18812914     0.36600
C681        C  0.40902916  0.57543137  0.19786613     0.36400
C682        C  0.39858785  0.63137493  0.06595579     0.37100
N683        N  0.40770397  0.73793632  0.24816634    -0.43700
N684        N  0.30916932  0.57328642  0.17784286    -0.44100
N685        N  0.39575969  0.64372793  0.03966516    -0.41500
N686        N  0.41119591  0.56437753  0.22476873    -0.42900
H687        H  0.43654512  0.54953696  0.14304967     0.13200
H688        H  0.37146789  0.65611486  0.12118359     0.09700
H689        H  0.41029472  0.67699696  0.18685286     0.10800
H690        H  0.30589623  0.63240790  0.24131714     0.16600
C691        C  0.40964163  0.42713173  0.16653264    -0.01600
C692        C  0.40017316  0.39248176  0.16341650     0.07000
C693        C  0.40592883  0.37514614  0.13316895    -0.07600
C694        C  0.42113944  0.39171680  0.10595482     0.04400
C695        C  0.43033932  0.42667518  0.10865487    -0.14800
C696        C  0.42453268  0.44394988  0.13922008    -0.08100
C697        C  0.38388612  0.37378811  0.19130761     0.05400
C698        C  0.35154307  0.38393462  0.20181448    -0.09200
C699        C  0.33496859  0.36695099  0.22802164     0.00400
C700        C  0.35126157  0.33919926  0.24459543     0.00200
C701        C  0.38347861  0.32867391  0.23311753    -0.12800
C702        C  0.39975983  0.34563896  0.20674784     0.00700
C703        C  0.30131263  0.37879810  0.23664036     0.40000
C704        C  0.43310824  0.33426089  0.19649489     0.36600
C705        C  0.40500408  0.44561573  0.19769638     0.36400
C706        C  0.42818592  0.37156197  0.07633199     0.37100
N707        N  0.27432447  0.38846430  0.24321221    -0.43700
N708        N  0.45978548  0.32515728  0.18815659    -0.44100
N709        N  0.43377480  0.35498718  0.05284491    -0.41500
N710        N  0.40128880  0.46030848  0.22271490    -0.42900
H711        H  0.43154153  0.47071247  0.14182218     0.13200
H712        H  0.39868723  0.34840317  0.13095247     0.09700
H713        H  0.33914125  0.40521431  0.18928230     0.10800
H714        H  0.39644253  0.30739315  0.24500103     0.16600
C715        C  0.64879705  0.60354579  0.76947789    -0.01600
C716        C  0.62929437  0.62462964  0.79068372     0.07000
C717        C  0.62771951  0.65989527  0.78492078    -0.07600
C718        C  0.64545629  0.67459556  0.75815290     0.04400
C719        C  0.66509387  0.65354137  0.73649279    -0.14800
C720        C  0.66663506  0.61811273  0.74266668    -0.08100
C721        C  0.61138272  0.61050744  0.81995004     0.05400
C722        C  0.62875345  0.60831063  0.85044985    -0.09200
C723        C  0.61315253  0.59419252  0.87880576     0.00400
C724        C  0.57935905  0.58212007  0.87663270     0.00200
C725        C  0.56199416  0.58489903  0.84588036    -0.12800
C726        C  0.57773444  0.59895071  0.81763918     0.00700
C727        C  0.63318642  0.59114982  0.90896014     0.40000
C728        C  0.55907352  0.60098980  0.78652437     0.36600
C729        C  0.65049863  0.56694265  0.77469941     0.36400
C730        C  0.64390942  0.71141458  0.75454837     0.37100
N731        N  0.64991751  0.58897353  0.93271047    -0.43700
N732        N  0.54410136  0.60259427  0.76160024    -0.44100
N733        N  0.64254832  0.74092081  0.75178880    -0.41500
N734        N  0.65165227  0.53762056  0.77897597    -0.42900
H735        H  0.68124106  0.60164075  0.72619172     0.13200
H736        H  0.61287124  0.67598330  0.80166845     0.09700
H737        H  0.65479774  0.61721282  0.85188653     0.10800
H738        H  0.53598720  0.57603894  0.84382243     0.16600
C739        C  0.63262838  0.34585304  0.79368097    -0.01600
C740        C  0.64004620  0.38001757  0.80207296     0.07000
C741        C  0.66463205  0.39803284  0.78383140    -0.07600
C742        C  0.68153793  0.38263368  0.75678682     0.04400
C743        C  0.67441505  0.34803762  0.74826765    -0.14800
C744        C  0.64991675  0.33008767  0.76716727    -0.08100
C745        C  0.62126197  0.39786024  0.82896139     0.05400
C746        C  0.63589230  0.40050306  0.86080702    -0.09200
C747        C  0.61867878  0.41688129  0.88707201     0.00400
C748        C  0.58592991  0.43093499  0.88147450     0.00200
C749        C  0.57151638  0.42808131  0.84926409    -0.12800
C750        C  0.58895563  0.41187943  0.82310391     0.00700
C751        C  0.63589455  0.41951541  0.91897366     0.40000
C752        C  0.57352413  0.41033939  0.79026729     0.36600
C753        C  0.60705197  0.32672293  0.81176286     0.36400
C754        C  0.70414707  0.40390198  0.73719764     0.37100
N755        N  0.64983484  0.42151053  0.94446026    -0.43700
N756        N  0.56133913  0.40919301  0.76386735    -0.44100
N757        N  0.72192167  0.42133093  0.72150522    -0.41500
N758        N  0.58642955  0.31159646  0.82627875    -0.42900
H759        H  0.64398480  0.30365228  0.76115083     0.13200
H760        H  0.66982821  0.42458091  0.79013616     0.09700
H761        H  0.66090516  0.38975864  0.86508414     0.10800
H762        H  0.54648464  0.43846870  0.84439022     0.16600
C763        C  0.43402318  0.39893587  0.82174387    -0.01600
C764        C  0.39956299  0.38959121  0.82359519     0.07000
C765        C  0.38064121  0.39772006  0.85234984    -0.07600
C766        C  0.39552581  0.41517180  0.87923581     0.04400
C767        C  0.43020965  0.42432814  0.87774416    -0.14800
C768        C  0.44909202  0.41612713  0.84873511    -0.08100
C769        C  0.38246093  0.37234072  0.79524657     0.05400
C770        C  0.38944867  0.33777730  0.78890855    -0.09200
C771        C  0.37393874  0.32058821  0.76217659     0.00400
C772        C  0.35121510  0.33844156  0.74076379     0.00200
C773        C  0.34422581  0.37315749  0.74758328    -0.12800
C774        C  0.35941275  0.39002135  0.77463601     0.00700
C775        C  0.38127232  0.28451606  0.75828723     0.40000
C776        C  0.35137483  0.42563498  0.78057114     0.36600
C777        C  0.45395135  0.39205470  0.79195189     0.36400
C778        C  0.37401480  0.42528610  0.90693167     0.37100
N779        N  0.38718095  0.25559944  0.75536412    -0.43700
N780        N  0.34492404  0.45413309  0.78553537    -0.44100
N781        N  0.35657161  0.43363436  0.92889937    -0.41500
N782        N  0.46965407  0.38655200  0.76791651    -0.42900
H783        H  0.47566201  0.42323060  0.84708958     0.13200
H784        H  0.35395611  0.39096634  0.85345604     0.09700
H785        H  0.40691095  0.32413161  0.80515068     0.10800
H786        H  0.32711773  0.38745287  0.73155553     0.16600
C787        C  0.37755034  0.66405021  0.78642645    -0.01600
C788        C  0.37220143  0.62910046  0.79327265     0.07000
C789        C  0.35071855  0.60992715  0.77256018    -0.07600
C790        C  0.33513744  0.62488251  0.74456366     0.04400
C791        C  0.34076492  0.65998051  0.73720495    -0.14800
C792        C  0.36184574  0.67917876  0.75866918    -0.08100
C793        C  0.38968918  0.61170219  0.82130497     0.05400
C794        C  0.37213738  0.60632870  0.85144791    -0.09200
C795        C  0.38758561  0.58936981  0.87836868     0.00400
C796        C  0.42152710  0.57761329  0.87533200     0.00200
C797        C  0.43885960  0.58294114  0.84477884    -0.12800
C798        C  0.42322703  0.59977664  0.81790878     0.00700
C799        C  0.36732650  0.58333796  0.90808281     0.40000
C800        C  0.44186553  0.60424407  0.78691032     0.36600
C801        C  0.39926802  0.68474905  0.80740869     0.36400
C802        C  0.31523694  0.60295817  0.72304223     0.37100
N803        N  0.35072281  0.57855592  0.93166151    -0.43700
N804        N  0.45666885  0.60779458  0.76198548    -0.44100
N805        N  0.29944655  0.58518128  0.70583440    -0.41500
N806        N  0.41668977  0.70132110  0.82421551    -0.42900
H807        H  0.36633317  0.70613501  0.75367399     0.13200
H808        H  0.34684561  0.58291794  0.77783669     0.09700
H809        H  0.34614750  0.61520672  0.85380807     0.10800
H810        H  0.46485823  0.57427388  0.84191156     0.16600
loop_ 
_geom_bond_atom_site_label_1 
_geom_bond_atom_site_label_2 
_geom_bond_distance 
_geom_bond_site_symmetry_2 
_ccdc_geom_bond_type 
O1          Zr13   2.453       .  S
O1            C3   1.290       .  A
O2          Zr39   2.405       .  S
O2            C3   1.283       .  A
C3          C767   1.481       .  S
O4          Zr16   2.439   1_554  S
O4            C6   1.286       .  A
O5          Zr40   2.410       .  S
O5            C6   1.285       .  A
C6          C671   1.489       .  S
O7          Zr16   2.435       .  S
O7            C9   1.287       .  A
O8          Zr39   2.424       .  S
O8            C9   1.287       .  A
C9          C796   1.487       .  S
O10         Zr13   2.443   1_554  S
O10          C12   1.288       .  A
O11         Zr40   2.401       .  S
O11          C12   1.283       .  A
C12         C695   1.479       .  S
Zr13         O14   2.432       .  S
Zr13         O15   2.436       .  S
Zr13         O19   2.371       .  S
Zr13         O20   2.373   1_556  S
Zr13         O43   2.370   1_556  S
Zr13         O45   2.364       .  S
O14          H57   0.990       .  S
O15          H56   0.990   1_556  S
O15          H60   0.990       .  S
Zr16         O17   2.435       .  S
Zr16         O18   2.435       .  S
Zr16         O20   2.369   1_556  S
Zr16         O19   2.375       .  S
Zr16         O44   2.370       .  S
Zr16         O46   2.370   1_556  S
O17          H58   0.990   1_556  S
O17          H61   0.990   1_556  S
O18          H51   0.990       .  S
O19         Zr39   2.378       .  S
O20         Zr40   2.380       .  S
O20          H47   0.966       .  S
O21         Zr33   2.428   1_554  S
O21          C23   1.284       .  A
O22         Zr40   2.418       .  S
O22          C23   1.286       .  A
C23         C623   1.490       .  S
O24         Zr36   2.438       .  S
O24          C26   1.287       .  A
O25         Zr39   2.400       .  S
O25          C26   1.283       .  A
C26         C724   1.476       .  S
O27         Zr36   2.435   1_554  S
O27          C29   1.286       .  A
O28         Zr40   2.408       .  S
O28          C29   1.285       .  A
C29         C652   1.486       .  S
O30         Zr33   2.427       .  S
O30          C32   1.285       .  A
O31         Zr39   2.419       .  S
O31          C32   1.286       .  A
C32         C748   1.485       .  S
Zr33         O34   2.437       .  S
Zr33         O35   2.434       .  S
Zr33         O41   2.364   1_556  S
Zr33         O42   2.367       .  S
Zr33         O45   2.370       .  S
Zr33         O43   2.368   1_556  S
O34          H54   0.990       .  S
O34          H59   0.990   1_556  S
O35          H55   0.990       .  S
Zr36         O37   2.433       .  S
Zr36         O38   2.435       .  S
Zr36         O42   2.370       .  S
Zr36         O41   2.371   1_556  S
Zr36         O46   2.372   1_556  S
Zr36         O44   2.368       .  S
O37          H53   0.990       .  S
O38          H52   0.990   1_556  S
O38          H62   0.990       .  S
Zr39         O42   2.375       .  S
Zr39         O44   2.377       .  S
Zr39         O45   2.376       .  S
Zr40         O41   2.376       .  S
Zr40         O43   2.375       .  S
Zr40         O46   2.376       .  S
O41          H49   0.966       .  S
O44          H48   0.966       .  S
O45          H50   0.965       .  S
O63         Zr75   2.434   1_565  S
O63          C65   1.286       .  A
O64        Zr101   2.403       .  S
O64          C65   1.282       .  A
C65         C599   1.461       .  S
O66         Zr78   2.441       .  S
O66          C68   1.289       .  A
O67        Zr102   2.401       .  S
O67          C68   1.282       .  A
C68         C503   1.487       .  S
O69         Zr78   2.442   1_565  S
O69          C71   1.288       .  A
O70        Zr101   2.410       .  S
O70          C71   1.284       .  A
C71         C575   1.479       .  S
O72         Zr75   2.440       .  S
O72          C74   1.287       .  A
O73        Zr102   2.405       .  S
O73          C74   1.284       .  A
C74         C484   1.485       .  S
Zr75         O76   2.436       .  S
Zr75         O77   2.434       .  S
Zr75         O81   2.369   1_545  S
Zr75         O82   2.362       .  S
Zr75        O105   2.373       .  S
Zr75        O107   2.372   1_545  S
O76         H119   0.990       .  S
O77         H118   0.990       .  S
O77         H122   0.990   1_545  S
Zr78         O79   2.437       .  S
Zr78         O80   2.434       .  S
Zr78         O82   2.364       .  S
Zr78         O81   2.368   1_545  S
Zr78        O106   2.366   1_545  S
Zr78        O108   2.381       .  S
O79         H120   0.990   1_545  S
O79         H123   0.990       .  S
O80         H113   0.990       .  S
O81        Zr101   2.375       .  S
O82        Zr102   2.377       .  S
O82         H109   0.966       .  S
O83         Zr95   2.435   1_545  S
O83          C85   1.286       .  A
O84        Zr102   2.412       .  S
O84          C85   1.285       .  A
C85         C460   1.476       .  S
O86         Zr98   2.433   1_565  S
O86          C88   1.287       .  A
O87        Zr101   2.406       .  S
O87          C88   1.283       .  A
C88         C551   1.473       .  S
O89         Zr98   2.444       .  S
O89          C91   1.288       .  A
O90        Zr102   2.409       .  S
O90          C91   1.284       .  A
C91         C436   1.492       .  S
O92         Zr95   2.437       .  S
O92          C94   1.288       .  A
O93        Zr101   2.414       .  S
O93          C94   1.284       .  A
C94         C532   1.491       .  S
Zr95         O96   2.434       .  S
Zr95         O97   2.434       .  S
Zr95        O103   2.368   1_565  S
Zr95        O104   2.376       .  S
Zr95        O107   2.365       .  S
Zr95        O105   2.374   1_565  S
O96         H116   0.990       .  S
O96         H121   0.990       .  S
O97         H117   0.990   1_565  S
Zr98         O99   2.434   1_545  S
Zr98        O100   2.435       .  S
Zr98        O104   2.377   1_545  S
Zr98        O103   2.367       .  S
Zr98        O108   2.372       .  S
Zr98        O106   2.373   1_545  S
O99         H115   0.990   1_565  S
O100        H114   0.990       .  S
O100        H124   0.990       .  S
Zr101       O104   2.375       .  S
Zr101       O106   2.380       .  S
Zr101       O107   2.378       .  S
Zr102       O103   2.373       .  S
Zr102       O105   2.374       .  S
Zr102       O108   2.380       .  S
O103        H111   0.967       .  S
O106        H110   0.964       .  S
O107        H112   0.966       .  S
O125       Zr137   2.436   1_655  S
O125        C127   1.288       .  A
O126       Zr163   2.428       .  S
O126        C127   1.287       .  A
C127        C407   1.483       .  S
O128       Zr140   2.425       .  S
O128        C130   1.285       .  A
O129       Zr164   2.427       .  S
O129        C130   1.288       .  A
C130        C316   1.483       .  S
O131       Zr140   2.420   1_655  S
O131        C133   1.284       .  A
O132       Zr163   2.408       .  S
O132        C133   1.284       .  A
C133        C383   1.466       .  S
O134       Zr137   2.445       .  S
O134        C136   1.289       .  A
O135       Zr164   2.398       .  S
O135        C136   1.282       .  A
C136        C292   1.477       .  S
Zr137       O138   2.436       .  S
Zr137       O139   2.434       .  S
Zr137       O143   2.364   1_455  S
Zr137       O144   2.368       .  S
Zr137       O167   2.365       .  S
Zr137       O169   2.378   1_455  S
O138        H181   0.990       .  S
O139        H180   0.990       .  S
O139        H184   0.990       .  S
Zr140       O141   2.435       .  S
Zr140       O142   2.434       .  S
Zr140       O144   2.367       .  S
Zr140       O143   2.360   1_455  S
Zr140       O168   2.372   1_455  S
Zr140       O170   2.375       .  S
O141        H182   0.990       .  S
O141        H185   0.990       .  S
O142        H175   0.990       .  S
O143       Zr163   2.375       .  S
O144       Zr164   2.380       .  S
O144        H171   0.965       .  S
O145       Zr157   2.428       .  S
O145        C147   1.286       .  A
O146       Zr164   2.427       .  S
O146        C147   1.286       .  A
C147        C263   1.494       .  S
O148       Zr160   2.424   1_655  S
O148        C150   1.285       .  A
O149       Zr163   2.426       .  S
O149        C150   1.287       .  A
C150        C364   1.483       .  S
O151       Zr160   2.439       .  S
O151        C153   1.287       .  A
O152       Zr164   2.410       .  S
O152        C153   1.285       .  A
C153        C244   1.490       .  S
O154       Zr157   2.431   1_655  S
O154        C156   1.285       .  A
O155       Zr163   2.419       .  S
O155        C156   1.286       .  A
C156        C340   1.474       .  S
Zr157       O158   2.437       .  S
Zr157       O159   2.434       .  S
Zr157       O165   2.369       .  S
Zr157       O166   2.365   1_455  S
Zr157       O169   2.371   1_455  S
Zr157       O167   2.367       .  S
O158        H178   0.990       .  S
O158        H183   0.990       .  S
O159        H179   0.990       .  S
Zr160       O161   2.433       .  S
Zr160       O162   2.438       .  S
Zr160       O166   2.373   1_455  S
Zr160       O165   2.369       .  S
Zr160       O170   2.364       .  S
Zr160       O168   2.371   1_455  S
O161        H177   0.990       .  S
O162        H176   0.990       .  S
O162        H186   0.990   1_455  S
Zr163       O166   2.375       .  S
Zr163       O168   2.383       .  S
Zr163       O169   2.382       .  S
Zr164       O165   2.379       .  S
Zr164       O167   2.377       .  S
Zr164       O170   2.377       .  S
O165        H173   0.967       .  S
O168        H172   0.962       .  S
O169        H174   0.962       .  S
C187        C388   1.470       .  S
C187        N188   1.357       .  A
C187        N192   1.355       .  A
N188        C189   1.356       .  A
C189        C628   1.482       .  S
C189        N190   1.354       .  A
N190        C191   1.353       .  A
C191        C508   1.474       .  S
C191        N192   1.354       .  A
C193        C412   1.476       .  S
C193        N194   1.359       .  A
C193        N198   1.355       .  A
N194        C195   1.358       .  A
C195        C580   1.492       .  S
C195        N196   1.357       .  A
N196        C197   1.356       .  A
C197        C647   1.482       .  S
C197        N198   1.355       .  A
C199        C743   1.486       .  S
C199        N200   1.357       .  A
C199        N204   1.358       .  A
N200        C201   1.357       .  A
C201        C359   1.487       .  S
C201        N202   1.359       .  A
N202        C203   1.358       .  A
C203        C431   1.488       .  S
C203        N204   1.356       .  A
C205        C604   1.472       .  S
C205        N206   1.354       .  A
C205        N210   1.356       .  A
N206        C207   1.354       .  A
C207        C287   1.484       .  S
C207        N208   1.356       .  A
N208        C209   1.357       .  A
C209        C676   1.489       .  S
C209        N210   1.355       .  A
C211        C791   1.487       .  S
C211        N212   1.359       .  A
C211        N216   1.356       .  A
N212        C213   1.361       .  A
C213        C268   1.487       .  S
C213        N214   1.357       .  A
N214        C215   1.355       .  A
C215        C527   1.476       .  S
C215        N216   1.355       .  A
C217        C772   1.488       .  S
C217        N218   1.357       .  A
C217        N222   1.353       .  A
N218        C219   1.358       .  A
C219        C239   1.490       .  S
C219        N220   1.361       .  A
N220        C221   1.358       .  A
C221        C455   1.486       .  S
C221        N222   1.356       .  A
C223        C719   1.478       .  S
C223        N224   1.353       .  A
C223        N228   1.360       .  A
N224        C225   1.351       .  A
C225        C556   1.480       .  S
C225        N226   1.355       .  A
N226        C227   1.356       .  A
C227        C335   1.480       .  S
C227        N228   1.360       .  A
C229        C479   1.471       .  S
C229        N230   1.357       .  A
C229        N234   1.356       .  A
N230        C231   1.356       .  A
C231        C311   1.471       .  S
C231        N232   1.353       .  A
N232        C233   1.353       .  A
C233        C700   1.487       .  S
C233        N234   1.357       .  A
C235        C236   1.405       .  A
C235        C240   1.398       .  A
C235        C249   1.444       .  S
C236        C241   1.475       .  S
C236        C237   1.397       .  A
C237        C238   1.399       .  A
C237        H256   1.085       .  S
C238        C239   1.421       .  A
C238        C250   1.444       .  S
C239        C240   1.409       .  A
C240        H255   1.084       .  S
C241        C242   1.397       .  A
C241        C246   1.405       .  A
C242        C243   1.398       .  A
C242        H257   1.085       .  S
C243        C244   1.421       .  A
C243        C247   1.444       .  S
C244        C245   1.411       .  A
C245        C246   1.398       .  A
C245        H258   1.084       .  S
C246        C248   1.444       .  S
C247        N251   1.157       .  T
C248        N252   1.157       .  T
C249        N254   1.157       .  T
C250        N253   1.157       .  T
C259        C260   1.406       .  A
C259        C264   1.397       .  A
C259        C273   1.445       .  S
C260        C265   1.483       .  S
C260        C261   1.402       .  A
C261        C262   1.401       .  A
C261        H280   1.085       .  S
C262        C263   1.420       .  A
C262        C274   1.444       .  S
C263        C264   1.412       .  A
C264        H279   1.084       .  S
C265        C266   1.402       .  A
C265        C270   1.408       .  A
C266        C267   1.399       .  A
C266        H281   1.085       .  S
C267        C268   1.415       .  A
C267        C271   1.444       .  S
C268        C269   1.409       .  A
C269        C270   1.399       .  A
C269        H282   1.084       .  S
C270        C272   1.445       .  S
C271        N275   1.157       .  T
C272        N276   1.157       .  T
C273        N278   1.157       .  T
C274        N277   1.158       .  T
C283        C284   1.405       .  A
C283        C288   1.395       .  A
C283        C297   1.445       .  S
C284        C289   1.470       .  S
C284        C285   1.397       .  A
C285        C286   1.396       .  A
C285        H304   1.085       .  S
C286        C287   1.420       .  A
C286        C298   1.444       .  S
C287        C288   1.409       .  A
C288        H303   1.084       .  S
C289        C290   1.398       .  A
C289        C294   1.406       .  A
C290        C291   1.395       .  A
C290        H305   1.085       .  S
C291        C292   1.417       .  A
C291        C295   1.445       .  S
C292        C293   1.406       .  A
C293        C294   1.397       .  A
C293        H306   1.085       .  S
C294        C296   1.444       .  S
C295        N299   1.157       .  T
C296        N300   1.157       .  T
C297        N302   1.157       .  T
C298        N301   1.157       .  T
C307        C308   1.406       .  A
C307        C312   1.393       .  A
C307        C321   1.445       .  S
C308        C313   1.470       .  S
C308        C309   1.400       .  A
C309        C310   1.399       .  A
C309        H328   1.085       .  S
C310        C311   1.412       .  A
C310        C322   1.444       .  S
C311        C312   1.404       .  A
C312        H327   1.085       .  S
C313        C314   1.396       .  A
C313        C318   1.405       .  A
C314        C315   1.397       .  A
C314        H329   1.085       .  S
C315        C316   1.420       .  A
C315        C319   1.443       .  S
C316        C317   1.407       .  A
C317        C318   1.395       .  A
C317        H330   1.085       .  S
C318        C320   1.444       .  S
C319        N323   1.157       .  T
C320        N324   1.157       .  T
C321        N326   1.157       .  T
C322        N325   1.157       .  T
C331        C332   1.407       .  A
C331        C336   1.397       .  A
C331        C345   1.444       .  S
C332        C337   1.476       .  S
C332        C333   1.400       .  A
C333        C334   1.399       .  A
C333        H352   1.085       .  S
C334        C335   1.414       .  A
C334        C346   1.443       .  S
C335        C336   1.408       .  A
C336        H351   1.085       .  S
C337        C338   1.401       .  A
C337        C342   1.409       .  A
C338        C339   1.399       .  A
C338        H353   1.085       .  S
C339        C340   1.414       .  A
C339        C343   1.444       .  S
C340        C341   1.403       .  A
C341        C342   1.397       .  A
C341        H354   1.085       .  S
C342        C344   1.444       .  S
C343        N347   1.157       .  T
C344        N348   1.157       .  T
C345        N350   1.157       .  T
C346        N349   1.157       .  T
C355        C356   1.405       .  A
C355        C360   1.397       .  A
C355        C369   1.445       .  S
C356        C361   1.474       .  S
C356        C357   1.398       .  A
C357        C358   1.399       .  A
C357        H376   1.085       .  S
C358        C359   1.419       .  A
C358        C370   1.444       .  S
C359        C360   1.409       .  A
C360        H375   1.084       .  S
C361        C362   1.400       .  A
C361        C366   1.404       .  A
C362        C363   1.400       .  A
C362        H377   1.085       .  S
C363        C364   1.416       .  A
C363        C367   1.444       .  S
C364        C365   1.409       .  A
C365        C366   1.396       .  A
C365        H378   1.085       .  S
C366        C368   1.444       .  S
C367        N371   1.157       .  T
C368        N372   1.157       .  T
C369        N374   1.157       .  T
C370        N373   1.157       .  T
C379        C380   1.404       .  A
C379        C384   1.393       .  A
C379        C393   1.444       .  S
C380        C385   1.463       .  S
C380        C381   1.399       .  A
C381        C382   1.394       .  A
C381        H400   1.085       .  S
C382        C383   1.412       .  A
C382        C394   1.445       .  S
C383        C384   1.405       .  A
C384        H399   1.085       .  S
C385        C386   1.397       .  A
C385        C390   1.405       .  A
C386        C387   1.394       .  A
C386        H401   1.085       .  S
C387        C388   1.414       .  A
C387        C391   1.444       .  S
C388        C389   1.405       .  A
C389        C390   1.393       .  A
C389        H402   1.085       .  S
C390        C392   1.445       .  S
C391        N395   1.157       .  T
C392        N396   1.157       .  T
C393        N398   1.157       .  T
C394        N397   1.157       .  T
C403        C404   1.405       .  A
C403        C408   1.396       .  A
C403        C417   1.444       .  S
C404        C409   1.474       .  S
C404        C405   1.400       .  A
C405        C406   1.401       .  A
C405        H424   1.085       .  S
C406        C407   1.417       .  A
C406        C418   1.442       .  S
C407        C408   1.407       .  A
C408        H423   1.085       .  S
C409        C410   1.401       .  A
C409        C414   1.406       .  A
C410        C411   1.401       .  A
C410        H425   1.085       .  S
C411        C412   1.415       .  A
C411        C415   1.445       .  S
C412        C413   1.403       .  A
C413        C414   1.394       .  A
C413        H426   1.083       .  S
C414        C416   1.444       .  S
C415        N419   1.157       .  T
C416        N420   1.157       .  T
C417        N422   1.157       .  T
C418        N421   1.157       .  T
C427        C428   1.407       .  A
C427        C432   1.398       .  A
C427        C441   1.444       .  S
C428        C433   1.478       .  S
C428        C429   1.399       .  A
C429        C430   1.400       .  A
C429        H448   1.085       .  S
C430        C431   1.420       .  A
C430        C442   1.444       .  S
C431        C432   1.408       .  A
C432        H447   1.084       .  S
C433        C434   1.399       .  A
C433        C438   1.406       .  A
C434        C435   1.399       .  A
C434        H449   1.085       .  S
C435        C436   1.420       .  A
C435        C439   1.444       .  S
C436        C437   1.410       .  A
C437        C438   1.398       .  A
C437        H450   1.082       .  S
C438        C440   1.445       .  S
C439        N443   1.157       .  T
C440        N444   1.157       .  T
C441        N446   1.157       .  T
C442        N445   1.158       .  T
C451        C452   1.406       .  A
C451        C456   1.394       .  A
C451        C465   1.445       .  S
C452        C457   1.476       .  S
C452        C453   1.401       .  A
C453        C454   1.401       .  A
C453        H472   1.085       .  S
C454        C455   1.417       .  A
C454        C466   1.444       .  S
C455        C456   1.408       .  A
C456        H471   1.084       .  S
C457        C458   1.400       .  A
C457        C462   1.408       .  A
C458        C459   1.398       .  A
C458        H473   1.085       .  S
C459        C460   1.415       .  A
C459        C463   1.444       .  S
C460        C461   1.405       .  A
C461        C462   1.396       .  A
C461        H474   1.085       .  S
C462        C464   1.444       .  S
C463        N467   1.157       .  T
C464        N468   1.157       .  T
C465        N470   1.157       .  T
C466        N469   1.157       .  T
C475        C476   1.410       .  A
C475        C480   1.397       .  A
C475        C489   1.444       .  S
C476        C481   1.477       .  S
C476        C477   1.402       .  A
C477        C478   1.397       .  A
C477        H496   1.085       .  S
C478        C479   1.411       .  A
C478        C490   1.444       .  S
C479        C480   1.403       .  A
C480        H495   1.085       .  S
C481        C482   1.399       .  A
C481        C486   1.407       .  A
C482        C483   1.396       .  A
C482        H497   1.085       .  S
C483        C484   1.418       .  A
C483        C487   1.444       .  S
C484        C485   1.410       .  A
C485        C486   1.397       .  A
C485        H498   1.085       .  S
C486        C488   1.444       .  S
C487        N491   1.157       .  T
C488        N492   1.157       .  T
C489        N494   1.157       .  T
C490        N493   1.157       .  T
C499        C500   1.407       .  A
C499        C504   1.397       .  A
C499        C513   1.445       .  S
C500        C505   1.475       .  S
C500        C501   1.397       .  A
C501        C502   1.395       .  A
C501        H520   1.085       .  S
C502        C503   1.422       .  A
C502        C514   1.445       .  S
C503        C504   1.409       .  A
C504        H519   1.084       .  S
C505        C506   1.401       .  A
C505        C510   1.409       .  A
C506        C507   1.396       .  A
C506        H521   1.085       .  S
C507        C508   1.414       .  A
C507        C511   1.445       .  S
C508        C509   1.404       .  A
C509        C510   1.395       .  A
C509        H522   1.083       .  S
C510        C512   1.444       .  S
C511        N515   1.157       .  T
C512        N516   1.157       .  T
C513        N518   1.157       .  T
C514        N517   1.157       .  T
C523        C524   1.408       .  A
C523        C528   1.397       .  A
C523        C537   1.444       .  S
C524        C529   1.478       .  S
C524        C525   1.402       .  A
C525        C526   1.397       .  A
C525        H544   1.085       .  S
C526        C527   1.413       .  A
C526        C538   1.444       .  S
C527        C528   1.406       .  A
C528        H543   1.085       .  S
C529        C530   1.399       .  A
C529        C534   1.406       .  A
C530        C531   1.399       .  A
C530        H545   1.085       .  S
C531        C532   1.422       .  A
C531        C535   1.445       .  S
C532        C533   1.410       .  A
C533        C534   1.397       .  A
C533        H546   1.084       .  S
C534        C536   1.445       .  S
C535        N539   1.158       .  T
C536        N540   1.157       .  T
C537        N542   1.157       .  T
C538        N541   1.157       .  T
C547        C548   1.405       .  A
C547        C552   1.396       .  A
C547        C561   1.444       .  S
C548        C553   1.467       .  S
C548        C549   1.397       .  A
C549        C550   1.394       .  A
C549        H568   1.085       .  S
C550        C551   1.415       .  A
C550        C562   1.444       .  S
C551        C552   1.406       .  A
C552        H567   1.085       .  S
C553        C554   1.398       .  A
C553        C558   1.403       .  A
C554        C555   1.396       .  A
C554        H569   1.085       .  S
C555        C556   1.420       .  A
C555        C559   1.445       .  S
C556        C557   1.408       .  A
C557        C558   1.394       .  A
C557        H570   1.084       .  S
C558        C560   1.444       .  S
C559        N563   1.158       .  T
C560        N564   1.157       .  T
C561        N566   1.157       .  T
C562        N565   1.157       .  T
C571        C572   1.410       .  A
C571        C576   1.398       .  A
C571        C585   1.444       .  S
C572        C577   1.482       .  S
C572        C573   1.402       .  A
C573        C574   1.398       .  A
C573        H592   1.085       .  S
C574        C575   1.416       .  A
C574        C586   1.444       .  S
C575        C576   1.405       .  A
C576        H591   1.085       .  S
C577        C578   1.400       .  A
C577        C582   1.407       .  A
C578        C579   1.398       .  A
C578        H593   1.085       .  S
C579        C580   1.420       .  A
C579        C583   1.443       .  S
C580        C581   1.411       .  A
C581        C582   1.398       .  A
C581        H594   1.084       .  S
C582        C584   1.445       .  S
C583        N587   1.157       .  T
C584        N588   1.157       .  T
C585        N590   1.157       .  T
C586        N589   1.157       .  T
C595        C596   1.410       .  A
C595        C600   1.396       .  A
C595        C609   1.444       .  S
C596        C601   1.474       .  S
C596        C597   1.402       .  A
C597        C598   1.395       .  A
C597        H616   1.085       .  S
C598        C599   1.408       .  A
C598        C610   1.444       .  S
C599        C600   1.402       .  A
C600        H615   1.085       .  S
C601        C602   1.401       .  A
C601        C606   1.409       .  A
C602        C603   1.397       .  A
C602        H617   1.085       .  S
C603        C604   1.413       .  A
C603        C607   1.445       .  S
C604        C605   1.403       .  A
C605        C606   1.394       .  A
C605        H618   1.085       .  S
C606        C608   1.445       .  S
C607        N611   1.157       .  T
C608        N612   1.157       .  T
C609        N614   1.157       .  T
C610        N613   1.157       .  T
C619        C620   1.404       .  A
C619        C624   1.398       .  A
C619        C633   1.444       .  S
C620        C625   1.469       .  S
C620        C621   1.394       .  A
C621        C622   1.395       .  A
C621        H640   1.086       .  S
C622        C623   1.423       .  A
C622        C634   1.444       .  S
C623        C624   1.411       .  A
C624        H639   1.084       .  S
C625        C626   1.396       .  A
C625        C630   1.405       .  A
C626        C627   1.394       .  A
C626        H641   1.085       .  S
C627        C628   1.419       .  A
C627        C631   1.444       .  S
C628        C629   1.409       .  A
C629        C630   1.397       .  A
C629        H642   1.084       .  S
C630        C632   1.445       .  S
C631        N635   1.157       .  T
C632        N636   1.157       .  T
C633        N638   1.157       .  T
C634        N637   1.157       .  T
C643        C644   1.408       .  A
C643        C648   1.394       .  A
C643        C657   1.445       .  S
C644        C649   1.478       .  S
C644        C645   1.402       .  A
C645        C646   1.398       .  A
C645        H664   1.085       .  S
C646        C647   1.418       .  A
C646        C658   1.445       .  S
C647        C648   1.406       .  A
C648        H663   1.084       .  S
C649        C650   1.400       .  A
C649        C654   1.408       .  A
C650        C651   1.396       .  A
C650        H665   1.085       .  S
C651        C652   1.419       .  A
C651        C655   1.444       .  S
C652        C653   1.410       .  A
C653        C654   1.395       .  A
C653        H666   1.084       .  S
C654        C656   1.445       .  S
C655        N659   1.157       .  T
C656        N660   1.157       .  T
C657        N662   1.157       .  T
C658        N661   1.158       .  T
C667        C668   1.406       .  A
C667        C672   1.396       .  A
C667        C681   1.445       .  S
C668        C673   1.474       .  S
C668        C669   1.397       .  A
C669        C670   1.399       .  A
C669        H688   1.085       .  S
C670        C671   1.421       .  A
C670        C682   1.444       .  S
C671        C672   1.410       .  A
C672        H687   1.084       .  S
C673        C674   1.398       .  A
C673        C678   1.404       .  A
C674        C675   1.399       .  A
C674        H689   1.085       .  S
C675        C676   1.421       .  A
C675        C679   1.444       .  S
C676        C677   1.410       .  A
C677        C678   1.395       .  A
C677        H690   1.084       .  S
C678        C680   1.444       .  S
C679        N683   1.158       .  T
C680        N684   1.157       .  T
C681        N686   1.157       .  T
C682        N685   1.157       .  T
C691        C692   1.408       .  A
C691        C696   1.397       .  A
C691        C705   1.445       .  S
C692        C697   1.473       .  S
C692        C693   1.398       .  A
C693        C694   1.395       .  A
C693        H712   1.085       .  S
C694        C695   1.415       .  A
C694        C706   1.443       .  S
C695        C696   1.408       .  A
C696        H711   1.085       .  S
C697        C698   1.397       .  A
C697        C702   1.406       .  A
C698        C699   1.396       .  A
C698        H713   1.085       .  S
C699        C700   1.422       .  A
C699        C703   1.445       .  S
C700        C701   1.409       .  A
C701        C702   1.395       .  A
C701        H714   1.084       .  S
C702        C704   1.445       .  S
C703        N707   1.158       .  T
C704        N708   1.157       .  T
C705        N710   1.157       .  T
C706        N709   1.157       .  T
C715        C716   1.405       .  A
C715        C720   1.396       .  A
C715        C729   1.444       .  S
C716        C721   1.467       .  S
C716        C717   1.396       .  A
C717        C718   1.395       .  A
C717        H736   1.085       .  S
C718        C719   1.418       .  A
C718        C730   1.445       .  S
C719        C720   1.405       .  A
C720        H735   1.082       .  S
C721        C722   1.398       .  A
C721        C726   1.404       .  A
C722        C723   1.396       .  A
C722        H737   1.085       .  S
C723        C724   1.415       .  A
C723        C727   1.443       .  S
C724        C725   1.408       .  A
C725        C726   1.394       .  A
C725        H738   1.085       .  S
C726        C728   1.444       .  S
C727        N731   1.157       .  T
C728        N732   1.157       .  T
C729        N734   1.157       .  T
C730        N733   1.157       .  T
C739        C740   1.405       .  A
C739        C744   1.397       .  A
C739        C753   1.444       .  S
C740        C745   1.474       .  S
C740        C741   1.398       .  A
C741        C742   1.399       .  A
C741        H760   1.085       .  S
C742        C743   1.420       .  A
C742        C754   1.444       .  S
C743        C744   1.408       .  A
C744        H759   1.084       .  S
C745        C746   1.397       .  A
C745        C750   1.406       .  A
C746        C747   1.398       .  A
C746        H761   1.085       .  S
C747        C748   1.420       .  A
C747        C751   1.445       .  S
C748        C749   1.408       .  A
C749        C750   1.397       .  A
C749        H762   1.085       .  S
C750        C752   1.444       .  S
C751        N755   1.157       .  T
C752        N756   1.157       .  T
C753        N758   1.157       .  T
C754        N757   1.157       .  T
C763        C764   1.408       .  A
C763        C768   1.400       .  A
C763        C777   1.445       .  S
C764        C769   1.478       .  S
C764        C765   1.400       .  A
C765        C766   1.398       .  A
C765        H784   1.085       .  S
C766        C767   1.414       .  A
C766        C778   1.443       .  S
C767        C768   1.408       .  A
C768        H783   1.085       .  S
C769        C770   1.399       .  A
C769        C774   1.406       .  A
C770        C771   1.399       .  A
C770        H785   1.085       .  S
C771        C772   1.420       .  A
C771        C775   1.445       .  S
C772        C773   1.408       .  A
C773        C774   1.398       .  A
C773        H786   1.084       .  S
C774        C776   1.444       .  S
C775        N779   1.158       .  T
C776        N780   1.157       .  T
C777        N782   1.157       .  T
C778        N781   1.157       .  T
C787        C788   1.406       .  A
C787        C792   1.398       .  A
C787        C801   1.444       .  S
C788        C793   1.478       .  S
C788        C789   1.400       .  A
C789        C790   1.401       .  A
C789        H808   1.085       .  S
C790        C791   1.417       .  A
C790        C802   1.444       .  S
C791        C792   1.409       .  A
C792        H807   1.084       .  S
C793        C794   1.398       .  A
C793        C798   1.407       .  A
C794        C795   1.400       .  A
C794        H809   1.085       .  S
C795        C796   1.419       .  A
C795        C799   1.444       .  S
C796        C797   1.408       .  A
C797        C798   1.399       .  A
C797        H810   1.085       .  S
C798        C800   1.444       .  S
C799        N803   1.157       .  T
C800        N804   1.157       .  T
C801        N806   1.157       .  T
C802        N805   1.157       .  T
