geometry optimzed in LAMMPS
_audit_creation_date              2020-12-01 
_audit_creation_method            'lammps2cif' 
_symmetry_space_group_name_H-M    'P1' 
_symmetry_Int_Tables_number       1 
_symmetry_cell_setting            triclinic 
loop_ 
_symmetry_equiv_pos_as_xyz 
  x,y,z 
_cell_length_a                    44.25530661 
_cell_length_b                    44.763836347515046 
_cell_length_c                    28.89959052997571 
_cell_angle_alpha                 90.02326088194508 
_cell_angle_beta                  89.10071815684 
_cell_angle_gamma                 121.14436207168646 
loop_ 
_atom_site_label 
_atom_site_type_symbol 
_atom_site_fract_x 
_atom_site_fract_y 
_atom_site_fract_z 
_atom_site_charge 
O1          O  0.33143683  0.11507746  0.69406452    -0.85600
O2          O  0.39626920  0.17157253  0.71847907    -0.82700
C3          C  0.39911695  0.19230632  0.68679660     0.97800
O4          O  0.38120683  0.20679235  0.68880045    -0.82700
O5          O  0.32648974  0.21741904  0.70848957    -0.85400
C6          C  0.30469134  0.19733111  0.67903933     1.02400
O7          O  0.28744376  0.16462069  0.68628397    -0.78100
O8          O  0.27796611  0.10117323  0.71613260    -0.78300
C9          C  0.29833348  0.09690684  0.68944730     1.02300
O10         O  0.31242348  0.09938457  0.78918714    -0.85600
O11         O  0.37347756  0.16004632  0.81425717    -0.82700
C12         C  0.39537766  0.19245175  0.81678943     0.97900
O13         O  0.39758497  0.21272730  0.78483827    -0.82700
O14         O  0.33790034  0.21533830  0.80540238    -0.85300
C15         C  0.30533500  0.20458444  0.80872473     1.02300
O16         O  0.28387819  0.18218897  0.78085615    -0.78100
O17         O  0.28108998  0.12200322  0.81138480    -0.78300
C18         C  0.29208359  0.10131554  0.81841254     1.02300
Cr19       Cr  0.35203183  0.13843598  0.75377619     1.93700
Cr20       Cr  0.35894398  0.20982979  0.74708084     1.93200
Cr21       Cr  0.28577189  0.14380139  0.74876394     1.39100
O22         O  0.33215337  0.16399732  0.74975871    -1.23400
C23         C  0.47075898  0.00446800  0.98924409     0.02800
C24         C  0.00442656  0.03504040  0.99101407    -0.13300
C25         C  0.03529840  0.03370285  0.99677499     0.00300
C26         C  0.03215867  0.00071235  0.99747378    -0.11800
C27         C  0.99930450  0.47009593  0.99172048     0.02800
C28         C  0.46896246  0.47218182  0.98674356    -0.11200
H29         H  0.00661780  0.06013381  0.98874887     0.08400
H30         H  0.05515423  0.99860524  0.00286859     0.06000
H31         H  0.44385930  0.44839596  0.98156475     0.05800
C32         C  0.30162013  0.02964837  0.97438963     0.02800
C33         C  0.33267068  0.02850749  0.96872170    -0.13300
C34         C  0.34528947  0.01698600  0.00484535     0.00300
C35         C  0.32493270  0.50493657  0.04609932    -0.11800
C36         C  0.29259954  0.50357923  0.05109650     0.02800
C37         C  0.28160514  0.01698921  0.01549129    -0.11200
H38         H  0.34642292  0.03598195  0.93561309     0.08400
H39         H  0.33326537  0.49478653  0.07388466     0.06000
H40         H  0.25684854  0.01632175  0.01900937     0.05800
C41         C  0.22702865  0.20767058  0.96341016     0.02800
C42         C  0.19497828  0.17547025  0.96403280    -0.13300
C43         C  0.17226498  0.16438529  0.00305564     0.00300
C44         C  0.18121567  0.18785924  0.04014996    -0.11800
C45         C  0.21142464  0.22154649  0.03763442     0.02800
C46         C  0.23481175  0.23097745  0.99984170    -0.11200
H47         H  0.18791683  0.15919296  0.93370188     0.08400
H48         H  0.16420365  0.18060901  0.07057044     0.06000
H49         H  0.25861681  0.25659614  0.99837424     0.05800
C50         C  0.01054118  0.30026873  0.03456685     0.02800
C51         C  0.99124566  0.27353255  0.00289632    -0.13300
C52         C  0.47181675  0.27798379  0.96861036     0.00300
C53         C  0.47166919  0.30928340  0.96616817    -0.11800
C54         C  0.99148964  0.33658913  0.99709521     0.02800
C55         C  0.01048808  0.33154730  0.03163964    -0.11200
H56         H  0.99193738  0.24970225  0.00433161     0.08400
H57         H  0.45633465  0.31240247  0.93983065     0.06000
H58         H  0.02605390  0.35235247  0.05567083     0.05800
O59         O  0.09859963  0.31656293  0.27859279    -0.85600
O60         O  0.15910585  0.37197617  0.30935049    -0.82700
C61         C  0.19107345  0.39192889  0.31866321     0.97800
O62         O  0.21488549  0.39390380  0.29165246    -0.82700
O63         O  0.20825705  0.33105676  0.30885962    -0.85400
C64         C  0.19600536  0.29877044  0.31040379     1.02400
O65         O  0.17551978  0.27899060  0.27915703    -0.78100
O66         O  0.11491783  0.27939657  0.29693713    -0.78300
C67         C  0.09489193  0.29124055  0.30277402     1.02300
O68         O  0.12381456  0.33914915  0.18476947    -0.85600
O69         O  0.18186347  0.39885226  0.21563972    -0.82700
C70         C  0.20738042  0.40279725  0.19027960     0.97900
O71         O  0.21898415  0.38251056  0.19401991    -0.82700
O72         O  0.21983475  0.32230540  0.21220118    -0.85300
C73         C  0.20002795  0.30140775  0.18142023     1.02300
O74         O  0.16748417  0.29011577  0.18208426    -0.78100
O75         O  0.10327813  0.28382021  0.20027600    -0.78300
C76         C  0.10302834  0.30742806  0.17625545     1.02300
Cr77       Cr  0.14263852  0.35505356  0.24689228     1.93700
Cr78       Cr  0.21202451  0.35566043  0.25110676     1.93200
Cr79       Cr  0.14209512  0.28646514  0.23985989     1.39100
O80         O  0.16551791  0.33238133  0.24566476    -1.23400
C81         C  0.03000245  0.49523261  0.50837941     0.02800
C82         C  0.49743057  0.46382564  0.50443630    -0.13300
C83         C  0.46621597  0.46442117  0.49980921     0.00300
C84         C  0.46791845  0.49654328  0.49730280    -0.11800
C85         C  0.49991402  0.02817887  0.50417238     0.02800
C86         C  0.03084194  0.02701151  0.50964995    -0.11200
H87         H  0.49641693  0.43911662  0.50430914     0.08400
H88         H  0.44406980  0.49661024  0.48995116     0.06000
H89         H  0.05593627  0.05086295  0.51468067     0.05800
C90         C  0.19924838  0.47850285  0.46879810     0.02400
C91         C  0.16865706  0.48060863  0.46843018    -0.13300
C92         C  0.16272872  0.49931099  0.50244933     0.00300
C93         C  0.18798619  0.01669711  0.53642912    -0.11800
C94         C  0.21913393  0.01553533  0.53666423     0.02800
C95         C  0.22479495  0.49644948  0.50258307    -0.11200
H96         H  0.14877536  0.46653349  0.44258068     0.08400
H97         H  0.18317960  0.03082250  0.56316348     0.06000
H98         H  0.24805948  0.49428174  0.50359606     0.05800
C99         C  0.48889557  0.19995301  0.53703072     0.02800
C100        C  0.49981783  0.22105473  0.49717038    -0.13300
C101        C  0.01592075  0.21389096  0.46009569     0.00300
C102        C  0.01840793  0.18376340  0.46208577    -0.11800
C103        C  0.50744833  0.16231007  0.50173516     0.02800
C104        C  0.49357237  0.17135825  0.53950833    -0.11200
H105        H  0.49542079  0.24267778  0.49491971     0.08400
H106        H  0.02828720  0.17670707  0.43217336     0.06000
H107        H  0.48479089  0.15518956  0.57047553     0.05800
C108        C  0.27452435  0.29260023  0.45854279     0.02800
C109        C  0.30429798  0.32660842  0.45995738    -0.13300
C110        C  0.32961111  0.33596436  0.49429903     0.00300
C111        C  0.32322305  0.31163793  0.52921253    -0.11800
C112        C  0.29464162  0.27679641  0.52755353     0.02800
C113        C  0.27029176  0.26743825  0.49148052    -0.11200
H114        H  0.30789860  0.34563113  0.43390189     0.08400
H115        H  0.34203205  0.31959718  0.55687395     0.06000
H116        H  0.24886300  0.24074907  0.48790263     0.05800
C117        C  0.03115892  0.09204158  0.48392993    -0.09400
C118        C  0.50156993  0.06246822  0.50409637     0.06800
C119        C  0.47491188  0.06681740  0.52484776    -0.03200
C120        C  0.47710934  0.09902447  0.52208240    -0.07700
C121        C  0.50677830  0.12859475  0.50245795     0.05900
C122        C  0.03460375  0.12496917  0.48454474    -0.02700
Br123      Br  0.07942513  0.16403680  0.46472871    -0.02400
H124        H  0.05228094  0.08987292  0.46815812     0.09800
H125        H  0.45543966  0.10097269  0.53640984     0.07800
Br126      Br  0.43651167  0.03173649  0.56212145    -0.02800
C127        C  0.10493557  0.48126661  0.54068851    -0.09400
C128        C  0.12910851  0.49885849  0.50417126     0.06800
C129        C  0.12072550  0.01549024  0.46975646    -0.03200
C130        C  0.08829604  0.01382943  0.47180185    -0.07700
C131        C  0.06373711  0.49568790  0.50781271     0.05900
C132        C  0.07240766  0.47954987  0.54273130    -0.02700
Br133      Br  0.04169482  0.45653289  0.59499711    -0.02400
H134        H  0.11138397  0.46874445  0.56760865     0.09800
H135        H  0.08216798  0.02676666  0.44509991     0.07800
Br136      Br  0.15336590  0.04192487  0.42049621    -0.02800
C137        C  0.37546524  0.38925784  0.53506048    -0.09400
C138        C  0.36369467  0.37026269  0.49371430     0.06800
C139        C  0.38668610  0.38242289  0.45448700    -0.03200
C140        C  0.41994310  0.41307759  0.45699201    -0.07700
C141        C  0.43141159  0.43165246  0.49835268     0.05900
C142        C  0.40907852  0.41928205  0.53775151    -0.02700
Br143      Br  0.42430727  0.44142415  0.59668043    -0.02400
H144        H  0.35874484  0.38020861  0.56585619     0.09800
H145        H  0.43720824  0.42218457  0.42669263     0.07800
Br146      Br  0.37606869  0.35700279  0.39776075    -0.02800
C147        C  0.02154691  0.22111415  0.37460264    -0.09400
C148        C  0.02971825  0.23681742  0.41838650     0.06800
C149        C  0.05461072  0.27305579  0.42117419    -0.03200
C150        C  0.07289626  0.29177514  0.38123095    -0.07700
C151        C  0.06731047  0.27489522  0.33872024     0.05900
C152        C  0.04045282  0.23969726  0.33509979    -0.02700
Br153      Br  0.03074470  0.21520227  0.27759398    -0.02400
H154        H  0.00195699  0.19361447  0.37153016     0.09800
H155        H  0.09387809  0.31880667  0.38420873     0.07800
Br156      Br  0.06881906  0.29771226  0.47862228    -0.02800
C157        C  0.17570861  0.39878829  0.39871724    -0.09400
C158        C  0.19936015  0.41328653  0.36088407     0.06800
C159        C  0.22706105  0.44852016  0.36284044    -0.03200
C160        C  0.22824538  0.46930996  0.40000551    -0.07700
C161        C  0.20248044  0.45525406  0.43551226     0.05900
C162        C  0.17721288  0.41931918  0.43585587    -0.02700
Br163      Br  0.14342969  0.39732334  0.48570466    -0.02400
H164        H  0.15499752  0.37148985  0.39861840     0.09800
H165        H  0.24809853  0.49688014  0.39988966     0.07800
Br166      Br  0.26185566  0.47046589  0.31421504    -0.02800
C167        C  0.23733898  0.28181977  0.33900709    -0.09400
C168        C  0.20831334  0.28564232  0.34789308     0.06800
C169        C  0.19801509  0.28616398  0.39409904    -0.03200
C170        C  0.21818264  0.28528591  0.43049155    -0.07700
C171        C  0.24873878  0.28398577  0.42130075     0.05900
C172        C  0.25730176  0.28064502  0.37522714    -0.02700
Br173      Br  0.29758779  0.27705428  0.35990448    -0.02400
H174        H  0.24640339  0.28275993  0.30385175     0.09800
H175        H  0.21138462  0.28801445  0.46576167     0.07800
Br176      Br  0.15851307  0.29141770  0.40848253    -0.02800
C177        C  0.02068012  0.29058248  0.11600149    -0.09400
C178        C  0.03231424  0.29661755  0.06969406     0.06800
C179        C  0.06607916  0.30263168  0.05830354    -0.03200
C180        C  0.08804602  0.30345714  0.09330667    -0.07700
C181        C  0.07689083  0.29862056  0.13983331     0.05900
C182        C  0.04274091  0.29172750  0.15103003    -0.02700
Br183      Br  0.02637014  0.28722489  0.21390842    -0.02400
H184        H  0.99494775  0.28647635  0.12510439     0.09800
H185        H  0.11452851  0.30956617  0.08442696     0.07800
Br186      Br  0.08437784  0.31311130  0.99600109    -0.02800
C187        C  0.22303422  0.24200078  0.11889448    -0.09400
C188        C  0.21678660  0.24743193  0.07317994     0.06800
C189        C  0.21135307  0.27509581  0.06306636    -0.03200
C190        C  0.20965914  0.29509754  0.09898615    -0.07700
C191        C  0.21356852  0.28820120  0.14507631     0.05900
C192        C  0.22160660  0.26224118  0.15479319    -0.02700
Br193      Br  0.22649396  0.25036645  0.21662844    -0.02400
H194        H  0.22717407  0.22074757  0.12694498     0.09800
H195        H  0.20278833  0.31453499  0.09122389     0.07800
Br196      Br  0.20168003  0.28389749  0.00170971    -0.02800
C197        C  0.25778184  0.46133606  0.16930038    -0.09400
C198        C  0.22527177  0.43219500  0.15734339     0.06800
C199        C  0.21300283  0.42958562  0.11209206    -0.03200
C200        C  0.23432154  0.45468019  0.07872799    -0.07700
C201        C  0.26801141  0.48271920  0.08971311     0.05900
C202        C  0.27898325  0.48675527  0.13612582    -0.02700
Br203      Br  0.32257404  0.02624504  0.15604799    -0.02400
H204        H  0.26727665  0.46370155  0.20423410     0.09800
H205        H  0.22539883  0.45101412  0.04333429     0.07800
Br206      Br  0.16866168  0.39077591  0.09332046    -0.02800
C207        C  0.10092842  0.06879892  0.98089815    -0.09400
C208        C  0.07070640  0.06664296  0.00127156     0.06800
C209        C  0.07525598  0.09612929  0.02566098    -0.03200
C210        C  0.10796953  0.12738815  0.02466894    -0.07700
C211        C  0.13806433  0.12982981  0.00360922     0.05900
C212        C  0.13439828  0.09921363  0.98356865    -0.02700
Br213      Br  0.17391166  0.09538219  0.96338127    -0.02400
H214        H  0.09879582  0.04652843  0.96308101     0.09800
H215        H  0.10968580  0.14989601  0.04117661     0.07800
Br216      Br  0.03961511  0.09523933  0.06564197    -0.02800
C217        C  0.00272244  0.42231206  0.95234958    -0.09400
C218        C  0.99641684  0.43561337  0.99288056     0.06800
C219        C  0.48807313  0.41613333  0.03424217    -0.03200
C220        C  0.48600329  0.38384487  0.03459528    -0.07700
C221        C  0.99238779  0.37032482  0.99415108     0.05900
C222        C  0.00092663  0.39006767  0.95261340    -0.02700
Br223      Br  0.01301507  0.37592950  0.89596519    -0.02400
H224        H  0.00959547  0.43735775  0.92048486     0.09800
H225        H  0.47954384  0.36926666  0.06681352     0.07800
Br226      Br  0.48038173  0.43312374  0.09143899    -0.02800
C227        C  0.37769220  0.48564958  0.01891707    -0.09400
C228        C  0.37762885  0.01425063  0.99879932     0.06800
C229        C  0.40876496  0.03960127  0.97511910    -0.03200
C230        C  0.43755500  0.03471593  0.96992898    -0.07700
C231        C  0.43791265  0.00661483  0.99146916     0.05900
C232        C  0.40764009  0.48270024  0.01779419    -0.02700
Br233      Br  0.40598646  0.44803588  0.05877752    -0.02400
H234        H  0.35451562  0.46562565  0.03729801     0.09800
H235        H  0.46031249  0.05391426  0.95003819     0.07800
Br236      Br  0.41605674  0.08357879  0.95379689    -0.02800
C237        C  0.43455198  0.19718460  0.56548396    -0.09400
C238        C  0.46881955  0.20469732  0.57448026     0.06800
C239        C  0.48091729  0.21089957  0.62025698    -0.03200
C240        C  0.45824397  0.20812065  0.65643671    -0.07700
C241        C  0.42350528  0.19927591  0.64762074     0.05900
C242        C  0.41175303  0.19410114  0.60165180    -0.02700
Br243      Br  0.36358539  0.17799862  0.58688630    -0.02400
H244        H  0.42472684  0.19138687  0.53050686     0.09800
H245        H  0.46746304  0.21200451  0.69167652     0.07800
Br246      Br  0.52780466  0.22219490  0.63491653    -0.02800
C247        C  0.27763074  0.04566201  0.85569849    -0.09400
C248        C  0.28317132  0.07939868  0.86066569     0.06800
C249        C  0.28887144  0.09387596  0.90532257    -0.03200
C250        C  0.29238317  0.07612650  0.94294387    -0.07700
C251        C  0.29027861  0.04398714  0.93676857     0.05900
C252        C  0.28104726  0.02795817  0.89320979    -0.02700
Br253      Br  0.27451015  0.98264294  0.88289080    -0.02400
H254        H  0.27292941  0.03395241  0.82172420     0.09800
H255        H  0.29914308  0.08854701  0.97647711     0.07800
Br256      Br  0.29671270  0.13954156  0.91590546    -0.02800
C257        C  0.47063957  0.25802176  0.88867106    -0.09400
C258        C  0.45422142  0.25152274  0.93235972     0.06800
C259        C  0.42053268  0.22157613  0.93932632    -0.03200
C260        C  0.40276761  0.19997991  0.90181415    -0.07700
C261        C  0.41807663  0.20819721  0.85721330     0.05900
C262        C  0.45297061  0.23660922  0.85127107    -0.02700
Br263      Br  0.47734641  0.24797249  0.79240101    -0.02400
H264        H  0.49683957  0.28064957  0.88326948     0.09800
H265        H  0.37600096  0.17835231  0.90685645     0.07800
Br266      Br  0.39660998  0.21105194  0.99827485    -0.02800
C267        C  0.29770040  0.07910128  0.60771827    -0.09400
C268        C  0.28225712  0.07095350  0.65226130     0.06800
C269        C  0.24859538  0.04068442  0.65873401    -0.03200
C270        C  0.22968004  0.02151248  0.62055187    -0.07700
C271        C  0.24350738  0.03187885  0.57554963     0.05900
C272        C  0.27843359  0.06004704  0.56925907    -0.02700
Br273      Br  0.29942006  0.07613779  0.50894100    -0.02400
H274        H  0.32370095  0.10188223  0.60232264     0.09800
H275        H  0.20318440  0.99932343  0.62582438     0.07800
Br276      Br  0.22639285  0.02461355  0.71864981    -0.02800
C277        C  0.32672264  0.25568134  0.57346939    -0.09400
C278        C  0.29395696  0.25096084  0.56144729     0.06800
C279        C  0.26348839  0.22492795  0.58577936    -0.03200
C280        C  0.26694734  0.20547390  0.62171074    -0.07700
C281        C  0.30049031  0.21343301  0.63643838     0.05900
C282        C  0.33052025  0.23977881  0.61225092    -0.02700
Br283      Br  0.37826955  0.25937447  0.63186824    -0.02400
H284        H  0.35049278  0.27431390  0.55461835     0.09800
H285        H  0.24358435  0.18606533  0.64054384     0.07800
Br286      Br  0.21725330  0.21722294  0.57567206    -0.02800
C287        C  0.24044474  0.21673544  0.87943097    -0.09400
C288        C  0.25196005  0.21630663  0.92412650     0.06800
C289        C  0.28502454  0.21932917  0.92989131    -0.03200
C290        C  0.30452531  0.21977931  0.89101927    -0.07700
C291        C  0.29093983  0.21606853  0.84646645     0.05900
C292        C  0.25959138  0.21664988  0.84068419    -0.02700
Br293      Br  0.24078137  0.21592460  0.78090644    -0.02400
H294        H  0.21541571  0.21519102  0.87471853     0.09800
H295        H  0.32864034  0.21956778  0.89599601     0.07800
Br296      Br  0.30229687  0.21772526  0.98979394    -0.02800
O297        O  0.33143964  0.61508483  0.69404682    -0.85600
O298        O  0.39627793  0.67157166  0.71845635    -0.82700
C299        C  0.39912735  0.69230783  0.68677667     0.97800
O300        O  0.38121993  0.70679685  0.68878487    -0.82700
O301        O  0.32650876  0.71743208  0.70849015    -0.85400
C302        C  0.30470061  0.69734612  0.67904726     1.02400
O303        O  0.28745024  0.66463550  0.68629157    -0.78100
O304        O  0.27797171  0.60118325  0.71612689    -0.78300
C305        C  0.29833587  0.59691686  0.68943415     1.02300
O306        O  0.31243455  0.59938863  0.78917253    -0.85600
O307        O  0.37349646  0.66004581  0.81423509    -0.82700
C308        C  0.39540092  0.69245028  0.81676602     0.97900
O309        O  0.39760615  0.71272845  0.78481979    -0.82700
O310        O  0.33792891  0.71535093  0.80539919    -0.85300
C311        C  0.30536461  0.70460077  0.80873034     1.02300
O312        O  0.28390171  0.68220327  0.78086846    -0.78100
O313        O  0.28111240  0.62201520  0.81138624    -0.78300
C314        C  0.29210416  0.60132542  0.81840821     1.02300
Cr315      Cr  0.35204200  0.63843871  0.75375748     1.93700
Cr316      Cr  0.35896379  0.70983722  0.74707152     1.93200
Cr317      Cr  0.28578655  0.64381349  0.74876705     1.39100
O318        O  0.33216824  0.66400510  0.74975004    -1.23400
C319        C  0.47079012  0.50450015  0.98924127     0.02800
C320        C  0.00445828  0.53507273  0.99100410    -0.13300
C321        C  0.03533062  0.53373449  0.99675818     0.00300
C322        C  0.03218961  0.50074315  0.99745652    -0.11800
C323        C  0.99927542  0.97006514  0.99172857     0.02800
C324        C  0.46893232  0.97215012  0.98674653    -0.11200
H325        H  0.00665034  0.56016643  0.98873852     0.08400
H326        H  0.05518518  0.49863533  0.00284711     0.06000
H327        H  0.44383027  0.94836429  0.98156177     0.05800
C328        C  0.30163592  0.52965477  0.97439346     0.02800
C329        C  0.33268989  0.52851995  0.96873003    -0.13300
C330        C  0.34530869  0.51699966  0.00485478     0.00300
C331        C  0.32491774  0.00492970  0.04609341    -0.11800
C332        C  0.29258806  0.00357848  0.05109407     0.02800
C333        C  0.28161675  0.51698949  0.01549185    -0.11200
H334        H  0.34644556  0.53599911  0.93562387     0.08400
H335        H  0.33325011  0.99477925  0.07387876     0.06000
H336        H  0.25685839  0.51631876  0.01900667     0.05800
C337        C  0.22707634  0.70769923  0.96342920     0.02800
C338        C  0.19502338  0.67550075  0.96404274    -0.13300
C339        C  0.17230591  0.66441123  0.00306168     0.00300
C340        C  0.18125540  0.68787946  0.04016299    -0.11800
C341        C  0.21146673  0.72156568  0.03765790     0.02800
C342        C  0.23485802  0.73100052  0.99986831    -0.11200
H343        H  0.18796235  0.65922882  0.93370655     0.08400
H344        H  0.16423958  0.68062658  0.07057983     0.06000
H345        H  0.25866321  0.75661925  0.99840694     0.05800
C346        C  0.01057214  0.80026960  0.03453204     0.02800
C347        C  0.99128349  0.77353365  0.00285873    -0.13300
C348        C  0.47184746  0.77797892  0.96857770     0.00300
C349        C  0.47168569  0.80927135  0.96614224    -0.11800
C350        C  0.99150161  0.83657771  0.99706918     0.02800
C351        C  0.01050702  0.83154215  0.03160957    -0.11200
H352        H  0.99198148  0.74970663  0.00429288     0.08400
H353        H  0.45634265  0.81238320  0.93981053     0.06000
H354        H  0.02606686  0.85234685  0.05564423     0.05800
O355        O  0.09859888  0.81657299  0.27858847    -0.85600
O356        O  0.15910297  0.87198782  0.30934776    -0.82700
C357        C  0.19106978  0.89194393  0.31866138     0.97800
O358        O  0.21488365  0.89391852  0.29165452    -0.82700
O359        O  0.20825879  0.83107397  0.30887413    -0.85400
C360        C  0.19600676  0.79878762  0.31042383     1.02400
O361        O  0.17552233  0.77900523  0.27917795    -0.78100
O362        O  0.11491835  0.77940953  0.29694273    -0.78300
C363        C  0.09489036  0.79125178  0.30277224     1.02300
O364        O  0.12381843  0.83915607  0.18476908    -0.85600
O365        O  0.18186294  0.89885954  0.21563952    -0.82700
C366        C  0.20737885  0.90280255  0.19027980     0.97900
O367        O  0.21898459  0.88251784  0.19402458    -0.82700
O368        O  0.21984130  0.82231729  0.21221796    -0.85300
C369        C  0.20003695  0.80141730  0.18143707     1.02300
O370        O  0.16749268  0.79012271  0.18209889    -0.78100
O371        O  0.10328686  0.78382789  0.20027680    -0.78300
C372        C  0.10303609  0.80743454  0.17625485     1.02300
Cr373      Cr  0.14263879  0.85506248  0.24689116     1.93700
Cr374      Cr  0.21202641  0.85567313  0.25111607     1.93200
Cr375      Cr  0.14209996  0.78647562  0.23987031     1.39100
O376        O  0.16552017  0.83239185  0.24567089    -1.23400
C377        C  0.03000791  0.99525375  0.50839467     0.02800
C378        C  0.49743588  0.96384629  0.50445501    -0.13300
C379        C  0.46622113  0.96444240  0.49983241     0.00300
C380        C  0.46792448  0.99656483  0.49732426    -0.11800
C381        C  0.49990771  0.52815770  0.50415086     0.02800
C382        C  0.03083645  0.52699070  0.50963064    -0.11200
H383        H  0.49642192  0.93913716  0.50432690     0.08400
H384        H  0.44407600  0.99663210  0.48997278     0.06000
H385        H  0.05593055  0.55084286  0.51465960     0.05800
C386        C  0.19925184  0.97853452  0.46878357     0.02400
C387        C  0.16866796  0.98065298  0.46841639    -0.13300
C388        C  0.16274304  0.99935144  0.50244440     0.00300
C389        C  0.18797210  0.51666697  0.53643076    -0.11800
C390        C  0.21912500  0.51551527  0.53666846     0.02800
C391        C  0.22479783  0.99646937  0.50257303    -0.11200
H392        H  0.14878621  0.96658594  0.44256400     0.08400
H393        H  0.18316304  0.53079494  0.56315878     0.06000
H394        H  0.24805552  0.99429006  0.50358657     0.05800
C395        C  0.48889251  0.69993399  0.53700407     0.02800
C396        C  0.49981030  0.72103528  0.49714441    -0.13300
C397        C  0.01590934  0.71387166  0.46006501     0.00300
C398        C  0.01839344  0.68374197  0.46204668    -0.11800
C399        C  0.50743891  0.66228897  0.50169669     0.02800
C400        C  0.49356930  0.67133895  0.53947623    -0.11200
H401        H  0.49541471  0.74265952  0.49489897     0.08400
H402        H  0.02826748  0.67668571  0.43212884     0.06000
H403        H  0.48479237  0.65517140  0.57044436     0.05800
C404        C  0.27451981  0.79263038  0.45858264     0.02800
C405        C  0.30429392  0.82663867  0.45999818    -0.13300
C406        C  0.32960782  0.83599401  0.49433924     0.00300
C407        C  0.32322052  0.81166705  0.52925148    -0.11800
C408        C  0.29463735  0.77682694  0.52759353     0.02800
C409        C  0.27028585  0.76746911  0.49152266    -0.11200
H410        H  0.30789578  0.84566124  0.43394172     0.08400
H411        H  0.34203199  0.81962347  0.55690968     0.06000
H412        H  0.24885566  0.74077992  0.48794814     0.05800
C413        C  0.03114768  0.59201662  0.48389103    -0.09400
C414        C  0.50156277  0.56244677  0.50406962     0.06800
C415        C  0.47490702  0.56679809  0.52482390    -0.03200
C416        C  0.47710397  0.59900491  0.52205442    -0.07700
C417        C  0.50676885  0.62857291  0.50241793     0.05900
C418        C  0.03459071  0.62494380  0.48449555    -0.02700
Br419      Br  0.07940481  0.66400616  0.46464720    -0.02400
H420        H  0.05226697  0.58984520  0.46811547     0.09800
H421        H  0.45543631  0.60095444  0.53638659     0.07800
Br422      Br  0.43650863  0.53171906  0.56210180    -0.02800
C423        C  0.10495046  0.98129914  0.54069126    -0.09400
C424        C  0.12912264  0.99889811  0.50417555     0.06800
C425        C  0.12071592  0.51545155  0.46974784    -0.03200
C426        C  0.08829021  0.51379891  0.47179112    -0.07700
C427        C  0.06374376  0.99571156  0.50782178     0.05900
C428        C  0.07241894  0.97957490  0.54273669    -0.02700
Br429      Br  0.04170758  0.95655021  0.59500104    -0.02400
H430        H  0.11140186  0.96877659  0.56760738     0.09800
H431        H  0.08216540  0.52673628  0.44508565     0.07800
Br432      Br  0.15335761  0.54187660  0.42048416    -0.02800
C433        C  0.37546916  0.88928631  0.53509629    -0.09400
C434        C  0.36369376  0.87029024  0.49375132     0.06800
C435        C  0.38668349  0.88244619  0.45452237    -0.03200
C436        C  0.41994250  0.91309843  0.45702312    -0.07700
C437        C  0.43141560  0.93167462  0.49838185     0.05900
C438        C  0.40908512  0.91930769  0.53778345    -0.02700
Br439      Br  0.42432137  0.94145003  0.59671091    -0.02400
H440        H  0.35875082  0.88023966  0.56589384     0.09800
H441        H  0.43720574  0.92220225  0.42672188     0.07800
Br442      Br  0.37606270  0.85702251  0.39779988    -0.02800
C443        C  0.02153681  0.72111546  0.37457301    -0.09400
C444        C  0.02971092  0.73680667  0.41836450     0.06800
C445        C  0.05460628  0.77304356  0.42116782    -0.03200
C446        C  0.07289370  0.79177238  0.38123155    -0.07700
C447        C  0.06730448  0.77490423  0.33871157     0.05900
C448        C  0.04044114  0.73971012  0.33507505    -0.02700
Br449      Br  0.03072204  0.71523888  0.27754885    -0.02400
H450        H  0.00194406  0.69361768  0.37148907     0.09800
H451        H  0.09387918  0.81880127  0.38422059     0.07800
Br452      Br  0.06881682  0.79768559  0.47862664    -0.02800
C453        C  0.17568301  0.89881534  0.39869664    -0.09400
C454        C  0.19935196  0.91330436  0.36087926     0.06800
C455        C  0.22706778  0.94853122  0.36284829    -0.03200
C456        C  0.22825311  0.96932431  0.40000984    -0.07700
C457        C  0.20247270  0.95527893  0.43549864     0.05900
C458        C  0.17718552  0.91934944  0.43582909    -0.02700
Br459      Br  0.14337231  0.89736341  0.48564963    -0.02400
H460        H  0.15495983  0.87152180  0.39858976     0.09800
H461        H  0.24812095  0.99688992  0.39990475     0.07800
Br462      Br  0.26188571  0.97046544  0.31424645    -0.02800
C463        C  0.23735476  0.78185981  0.33903490    -0.09400
C464        C  0.20831646  0.78566251  0.34791493     0.06800
C465        C  0.19800303  0.78616531  0.39411888    -0.03200
C466        C  0.21816980  0.78529192  0.43051661    -0.07700
C467        C  0.24873886  0.78401332  0.42133254     0.05900
C468        C  0.25731508  0.78068720  0.37525944    -0.02700
Br469      Br  0.29761120  0.77711259  0.35994324    -0.02400
H470        H  0.24642809  0.78281119  0.30388134     0.09800
H471        H  0.21135931  0.78800604  0.46578629     0.07800
Br472      Br  0.15847728  0.79138213  0.40849405    -0.02800
C473        C  0.02071614  0.79064655  0.11598823    -0.09400
C474        C  0.03233520  0.79661813  0.06967460     0.06800
C475        C  0.06607860  0.80257189  0.05829006    -0.03200
C476        C  0.08803956  0.80340042  0.09330447    -0.07700
C477        C  0.07689859  0.79862486  0.13983418     0.05900
C478        C  0.04277054  0.79179423  0.15102612    -0.02700
Br479      Br  0.02642475  0.78737936  0.21390442    -0.02400
H480        H  0.99500151  0.78658768  0.12508564     0.09800
H481        H  0.11450916  0.80946785  0.08442854     0.07800
Br482      Br  0.08436363  0.81297296  0.99597799    -0.02800
C483        C  0.22306972  0.74202421  0.11891944    -0.09400
C484        C  0.21681988  0.74744940  0.07320286     0.06800
C485        C  0.21137255  0.77510387  0.06308575    -0.03200
C486        C  0.20966747  0.79510156  0.09900291    -0.07700
C487        C  0.21358144  0.78821224  0.14509467     0.05900
C488        C  0.22163342  0.76226248  0.15481561    -0.02700
Br489      Br  0.22653163  0.75040080  0.21665373    -0.02400
H490        H  0.22721956  0.72077789  0.12697335     0.09800
H491        H  0.20278689  0.81453131  0.09123694     0.07800
Br492      Br  0.20169849  0.78389797  0.00172549    -0.02800
C493        C  0.25777389  0.96134174  0.16929813    -0.09400
C494        C  0.22526696  0.93219696  0.15734073     0.06800
C495        C  0.21299752  0.92958214  0.11208869    -0.03200
C496        C  0.23431334  0.95467755  0.07872453    -0.07700
C497        C  0.26800088  0.98272028  0.08971022     0.05900
C498        C  0.27897341  0.98675993  0.13612241    -0.02700
Br499      Br  0.32258311  0.52623933  0.15605558    -0.02400
H500        H  0.26726836  0.96371023  0.20423259     0.09800
H501        H  0.22539151  0.95100877  0.04333020     0.07800
Br502      Br  0.16866179  0.89076330  0.09331586    -0.02800
C503        C  0.10096130  0.56883007  0.98087921    -0.09400
C504        C  0.07073980  0.56667443  0.00125421     0.06800
C505        C  0.07529150  0.59615996  0.02564833    -0.03200
C506        C  0.10800707  0.62741703  0.02466255    -0.07700
C507        C  0.13810185  0.62985794  0.00360372     0.05900
C508        C  0.13443274  0.59924287  0.98355455    -0.02700
Br509      Br  0.17394384  0.59540949  0.96336161    -0.02400
H510        H  0.09882707  0.54656031  0.96305795     0.09800
H511        H  0.10972504  0.64992402  0.04117536     0.07800
Br512      Br  0.03965096  0.59527074  0.06562929    -0.02800
C513        C  0.00268662  0.92228463  0.95233977    -0.09400
C514        C  0.99639184  0.93558472  0.99287968     0.06800
C515        C  0.48806722  0.91610846  0.03424303    -0.03200
C516        C  0.48600776  0.88382482  0.03458766    -0.07700
C517        C  0.99238492  0.87030657  0.99413348     0.05900
C518        C  0.00090230  0.89004582  0.95259502    -0.02700
Br519      Br  0.01297894  0.87591348  0.89593235    -0.02400
H520        H  0.00954448  0.93732826  0.92047476     0.09800
H521        H  0.47956334  0.86924910  0.06680638     0.07800
Br522      Br  0.48038772  0.93309696  0.09144956    -0.02800
C523        C  0.37766310  0.98562586  0.01890794    -0.09400
C524        C  0.37765326  0.51427262  0.99881184     0.06800
C525        C  0.40878892  0.53962844  0.97513559    -0.03200
C526        C  0.43758210  0.53474797  0.96994221    -0.07700
C527        C  0.43794329  0.50664661  0.99147604     0.05900
C528        C  0.40760811  0.98267148  0.01778696    -0.02700
Br529      Br  0.40595036  0.94800512  0.05877097    -0.02400
H530        H  0.35448544  0.96560511  0.03729064     0.09800
H531        H  0.46033829  0.55394947  0.95005254     0.07800
Br532      Br  0.41607467  0.58360565  0.95382245    -0.02800
C533        C  0.43455790  0.69718146  0.56546244    -0.09400
C534        C  0.46882106  0.70468084  0.57445771     0.06800
C535        C  0.48091953  0.71087916  0.62023401    -0.03200
C536        C  0.45824998  0.70810811  0.65641442    -0.07700
C537        C  0.42351455  0.69927543  0.64759957     0.05900
C538        C  0.41176261  0.69410545  0.60163076    -0.02700
Br539      Br  0.36359842  0.67801715  0.58686485    -0.02400
H540        H  0.42473244  0.69138813  0.53048524     0.09800
H541        H  0.46746896  0.71198797  0.69165409     0.07800
Br542      Br  0.52780280  0.72216026  0.63489169    -0.02800
C543        C  0.27765120  0.54567284  0.85570057    -0.09400
C544        C  0.28319946  0.57941265  0.86066510     0.06800
C545        C  0.28890804  0.59389380  0.90532061    -0.03200
C546        C  0.29241446  0.57614177  0.94294339    -0.07700
C547        C  0.29029800  0.54399669  0.93677155     0.05900
C548        C  0.28106396  0.52796721  0.89321314    -0.02700
Br549      Br  0.27452010  0.48264921  0.88289552    -0.02400
H550        H  0.27294523  0.53396096  0.82172748     0.09800
H551        H  0.29917962  0.58856424  0.97647515     0.07800
Br552      Br  0.29676826  0.63956706  0.91590005    -0.02800
C553        C  0.47066945  0.75801787  0.88863815    -0.09400
C554        C  0.45425420  0.75151661  0.93232894     0.06800
C555        C  0.42056863  0.72156672  0.93929943    -0.03200
C556        C  0.40280197  0.69997074  0.90178841    -0.07700
C557        C  0.41810582  0.70819198  0.85718512     0.05900
C558        C  0.45299869  0.73660522  0.85123912    -0.02700
Br559      Br  0.47737014  0.74796952  0.79236596    -0.02400
H560        H  0.49686782  0.78064770  0.88323415     0.09800
H561        H  0.37603735  0.67834071  0.90683391     0.07800
Br562      Br  0.39665102  0.71103749  0.99825186    -0.02800
C563        C  0.29768770  0.57912089  0.60769657    -0.09400
C564        C  0.28225684  0.57096512  0.65224656     0.06800
C565        C  0.24860575  0.54068468  0.65873013    -0.03200
C566        C  0.22968667  0.52150553  0.62055353    -0.07700
C567        C  0.24350187  0.53187480  0.57554651     0.05900
C568        C  0.27841809  0.56005864  0.56924363    -0.02700
Br569      Br  0.29938429  0.57615586  0.50891736    -0.02400
H570        H  0.32368019  0.60191120  0.60229244     0.09800
H571        H  0.20319857  0.49930593  0.62583492     0.07800
Br572      Br  0.22642830  0.52460402  0.71865643    -0.02800
C573        C  0.32671899  0.75569974  0.57348337    -0.09400
C574        C  0.29395423  0.75098996  0.56148171     0.06800
C575        C  0.26348892  0.72496734  0.58582841    -0.03200
C576        C  0.26694910  0.70550681  0.62174985    -0.07700
C577        C  0.30049305  0.71345159  0.63645415     0.05900
C578        C  0.33052056  0.73979156  0.61225583    -0.02700
Br579      Br  0.37827346  0.75937465  0.63185048    -0.02400
H580        H  0.35048621  0.77432912  0.55462422     0.09800
H581        H  0.24358857  0.68610597  0.64059458     0.07800
Br582      Br  0.21726157  0.71729263  0.57575576    -0.02800
C583        C  0.24048870  0.71676714  0.87944845    -0.09400
C584        C  0.25200786  0.71634015  0.92414248     0.06800
C585        C  0.28507407  0.71936464  0.92990054    -0.03200
C586        C  0.30456875  0.71980806  0.89102467    -0.07700
C587        C  0.29097733  0.71609225  0.84647453     0.05900
C588        C  0.25963041  0.71667745  0.84069824    -0.02700
Br589      Br  0.24081596  0.71595242  0.78092398    -0.02400
H590        H  0.21545969  0.71522349  0.87473994     0.09800
H591        H  0.32868399  0.71959621  0.89599708     0.07800
Br592      Br  0.30235880  0.71777510  0.98979982    -0.02800
O593        O  0.83143702  0.11507741  0.69406477    -0.85600
O594        O  0.89626938  0.17157255  0.71847923    -0.82700
C595        C  0.89911700  0.19230628  0.68679674     0.97800
O596        O  0.88120676  0.20679219  0.68880062    -0.82700
O597        O  0.82648969  0.21741889  0.70848983    -0.85400
C598        C  0.80469132  0.19733095  0.67903958     1.02400
O599        O  0.78744381  0.16462052  0.68628420    -0.78100
O600        O  0.77796628  0.10117311  0.71613289    -0.78300
C601        C  0.79833366  0.09690677  0.68944755     1.02300
O602        O  0.81242377  0.09938455  0.78918735    -0.85600
O603        O  0.87347780  0.16004636  0.81425744    -0.82700
C604        C  0.89537784  0.19245181  0.81678964     0.97900
O605        O  0.89758504  0.21272730  0.78483846    -0.82700
O606        O  0.83790042  0.21533834  0.80540258    -0.85300
C607        C  0.80533509  0.20458443  0.80872493     1.02300
O608        O  0.78387828  0.18218888  0.78085638    -0.78100
O609        O  0.78109017  0.12200312  0.81138498    -0.78300
C610        C  0.79208385  0.10131548  0.81841272     1.02300
Cr611      Cr  0.85203204  0.13843598  0.75377643     1.93700
Cr612      Cr  0.85894401  0.20982971  0.74708106     1.93200
Cr613      Cr  0.78577201  0.14380127  0.74876418     1.39100
O614        O  0.83215349  0.16399725  0.74975901    -1.23400
C615        C  0.97075925  0.00446767  0.98924333     0.02800
C616        C  0.50442635  0.03504067  0.99101465    -0.13300
C617        C  0.53529815  0.03370302  0.99677550     0.00300
C618        C  0.53215830  0.00071248  0.99747438    -0.11800
C619        C  0.49930501  0.47009582  0.99171934     0.02800
C620        C  0.96896199  0.47218201  0.98674494    -0.11200
H621        H  0.50661769  0.06013411  0.98874945     0.08400
H622        H  0.55515383  0.99860529  0.00286916     0.06000
H623        H  0.94385880  0.44839621  0.98156623     0.05800
C624        C  0.80162051  0.02964831  0.97438958     0.02800
C625        C  0.83267101  0.02850738  0.96872137    -0.13300
C626        C  0.84528982  0.01698572  0.00484480     0.00300
C627        C  0.82493225  0.50493687  0.04610001    -0.11800
C628        C  0.79259897  0.50357932  0.05109685     0.02800
C629        C  0.78160565  0.01698921  0.01549136    -0.11200
H630        H  0.84642318  0.03598191  0.93561270     0.08400
H631        H  0.83326494  0.49478698  0.07388556     0.06000
H632        H  0.75684917  0.01632189  0.01900968     0.05800
C633        C  0.72702856  0.20767042  0.96341022     0.02800
C634        C  0.69497812  0.17547015  0.96403287    -0.13300
C635        C  0.67226487  0.16438528  0.00305573     0.00300
C636        C  0.68121559  0.18785930  0.04014999    -0.11800
C637        C  0.71142463  0.22154650  0.03763442     0.02800
C638        C  0.73481176  0.23097733  0.99984177    -0.11200
H639        H  0.68791660  0.15919280  0.93370197     0.08400
H640        H  0.66420359  0.18060915  0.07057042     0.06000
H641        H  0.75861692  0.25659595  0.99837432     0.05800
C642        C  0.51054137  0.30026852  0.03456647     0.02800
C643        C  0.49124568  0.27353226  0.00289610    -0.13300
C644        C  0.97181668  0.27798405  0.96861065     0.00300
C645        C  0.97166904  0.30928363  0.96616855    -0.11800
C646        C  0.49148991  0.33658896  0.99709471     0.02800
C647        C  0.51048842  0.33154715  0.03163908    -0.11200
H648        H  0.49193724  0.24970190  0.00433153     0.08400
H649        H  0.95633453  0.31240270  0.93983101     0.06000
H650        H  0.52605442  0.35235242  0.05567009     0.05800
O651        O  0.59859953  0.31656264  0.27859291    -0.85600
O652        O  0.65910567  0.37197597  0.30935067    -0.82700
C653        C  0.69107328  0.39192878  0.31866332     0.97800
O654        O  0.71488530  0.39390375  0.29165249    -0.82700
O655        O  0.70825706  0.33105681  0.30885964    -0.85400
C656        C  0.69600551  0.29877051  0.31040379     1.02400
O657        O  0.67551995  0.27899062  0.27915707    -0.78100
O658        O  0.61491793  0.27939643  0.29693729    -0.78300
C659        C  0.59489195  0.29124033  0.30277416     1.02300
O660        O  0.62381439  0.33914895  0.18476966    -0.85600
O661        O  0.68186316  0.39885214  0.21564000    -0.82700
C662        C  0.70738007  0.40279717  0.19027975     0.97900
O663        O  0.71898386  0.38251053  0.19401991    -0.82700
O664        O  0.71983480  0.32230548  0.21220121    -0.85300
C665        C  0.70002804  0.30140782  0.18142024     1.02300
O666        O  0.66748423  0.29011567  0.18208431    -0.78100
O667        O  0.60327811  0.28381999  0.20027601    -0.78300
C668        C  0.60302827  0.30742786  0.17625554     1.02300
Cr669      Cr  0.64263833  0.35505335  0.24689245     1.93700
Cr670      Cr  0.71202441  0.35566044  0.25110678     1.93200
Cr671      Cr  0.64209516  0.28646502  0.23985996     1.39100
O672        O  0.66551783  0.33238122  0.24566483    -1.23400
C673        C  0.53000228  0.49523287  0.50837928     0.02800
C674        C  0.99743076  0.46382533  0.50443658    -0.13300
C675        C  0.96621614  0.46442081  0.49980942     0.00300
C676        C  0.96791857  0.49654291  0.49730285    -0.11800
C677        C  0.99991381  0.02817891  0.50417209     0.02800
C678        C  0.53084213  0.02701144  0.50965029    -0.11200
H679        H  0.99641717  0.43911636  0.50430956     0.08400
H680        H  0.94406992  0.49660983  0.48995112     0.06000
H681        H  0.55593648  0.05086287  0.51468100     0.05800
C682        C  0.69924805  0.47850286  0.46879795     0.02400
C683        C  0.66865674  0.48060867  0.46842998    -0.13300
C684        C  0.66272844  0.49931109  0.50244905     0.00300
C685        C  0.68798632  0.01669689  0.53642945    -0.11800
C686        C  0.71913411  0.01553522  0.53666449     0.02800
C687        C  0.72479461  0.49644948  0.50258295    -0.11200
H688        H  0.64877504  0.46653354  0.44258044     0.08400
H689        H  0.68317969  0.03082223  0.56316393     0.06000
H690        H  0.74805913  0.49428170  0.50359603     0.05800
C691        C  0.98889564  0.19995326  0.53703064     0.02800
C692        C  0.99981794  0.22105499  0.49717031    -0.13300
C693        C  0.51592063  0.21389073  0.46009575     0.00300
C694        C  0.51840795  0.18376326  0.46208584    -0.11800
C695        C  0.00744831  0.16231023  0.50173510     0.02800
C696        C  0.99357236  0.17135845  0.53950829    -0.11200
H697        H  0.99542091  0.24267804  0.49491961     0.08400
H698        H  0.52828728  0.17670698  0.43217344     0.06000
H699        H  0.98479085  0.15518979  0.57047543     0.05800
C700        C  0.77452445  0.29260006  0.45854273     0.02800
C701        C  0.80429812  0.32660821  0.45995736    -0.13300
C702        C  0.82961120  0.33596410  0.49429904     0.00300
C703        C  0.82322304  0.31163766  0.52921258    -0.11800
C704        C  0.79464157  0.27679616  0.52755357     0.02800
C705        C  0.77029177  0.26743805  0.49148048    -0.11200
H706        H  0.80789882  0.34563097  0.43390184     0.08400
H707        H  0.84203203  0.31959687  0.55687402     0.06000
H708        H  0.74886299  0.24074889  0.48790253     0.05800
C709        C  0.53115914  0.09204153  0.48393010    -0.09400
C710        C  0.00156969  0.06246827  0.50409613     0.06800
C711        C  0.97491162  0.06681745  0.52484744    -0.03200
C712        C  0.97710913  0.09902457  0.52208210    -0.07700
C713        C  0.00677820  0.12859487  0.50245790     0.05900
C714        C  0.53460384  0.12496908  0.48454472    -0.02700
Br715      Br  0.57942508  0.16403677  0.46472837    -0.02400
H716        H  0.55228120  0.08987291  0.46815836     0.09800
H717        H  0.95543943  0.10097282  0.53640942     0.07800
Br718      Br  0.93651138  0.03173650  0.56212109    -0.02800
C719        C  0.60493536  0.48126683  0.54068827    -0.09400
C720        C  0.62910826  0.49885866  0.50417097     0.06800
C721        C  0.62072569  0.01549020  0.46975706    -0.03200
C722        C  0.58829625  0.01382945  0.47180245    -0.07700
C723        C  0.56373692  0.49568815  0.50781252     0.05900
C724        C  0.57240749  0.47955017  0.54273112    -0.02700
Br725      Br  0.54169478  0.45653340  0.59499711    -0.02400
H726        H  0.61138375  0.46874469  0.56760837     0.09800
H727        H  0.58216830  0.02676684  0.44510062     0.07800
Br728      Br  0.65336608  0.04192489  0.42049688    -0.02800
C729        C  0.87546534  0.38925753  0.53506048    -0.09400
C730        C  0.86369481  0.37026237  0.49371431     0.06800
C731        C  0.88668628  0.38242252  0.45448702    -0.03200
C732        C  0.91994332  0.41307719  0.45699213    -0.07700
C733        C  0.93141177  0.43165207  0.49835279     0.05900
C734        C  0.90907862  0.41928172  0.53775154    -0.02700
Br735      Br  0.92430738  0.44142367  0.59668050    -0.02400
H736        H  0.85874493  0.38020831  0.56585616     0.09800
H737        H  0.93720854  0.42218416  0.42669277     0.07800
Br738      Br  0.87606882  0.35700231  0.39776080    -0.02800
C739        C  0.52154676  0.22111393  0.37460270    -0.09400
C740        C  0.52971810  0.23681721  0.41838658     0.06800
C741        C  0.55461070  0.27305555  0.42117429    -0.03200
C742        C  0.57289631  0.29177486  0.38123108    -0.07700
C743        C  0.56731049  0.27489495  0.33872037     0.05900
C744        C  0.54045279  0.23969701  0.33509987    -0.02700
Br745      Br  0.53074452  0.21520204  0.27759402    -0.02400
H746        H  0.50195675  0.19361428  0.37153022     0.09800
H747        H  0.59387817  0.31880636  0.38420888     0.07800
Br748      Br  0.56881916  0.29771219  0.47862228    -0.02800
C749        C  0.67570844  0.39878823  0.39871738    -0.09400
C750        C  0.69935995  0.41328645  0.36088417     0.06800
C751        C  0.72706075  0.44852012  0.36284045    -0.03200
C752        C  0.72824505  0.46930999  0.40000542    -0.07700
C753        C  0.70248012  0.45525409  0.43551215     0.05900
C754        C  0.67721265  0.41931921  0.43585589    -0.02700
Br755      Br  0.64342971  0.39732354  0.48570498    -0.02400
H756        H  0.65499742  0.37148976  0.39861866     0.09800
H757        H  0.74809812  0.49688017  0.39988950     0.07800
Br758      Br  0.76185519  0.47046592  0.31421497    -0.02800
C759        C  0.73733910  0.28181974  0.33900704    -0.09400
C760        C  0.70831356  0.28564246  0.34789307     0.06800
C761        C  0.69801535  0.28616417  0.39409902    -0.03200
C762        C  0.71818284  0.28528596  0.43049151    -0.07700
C763        C  0.74873890  0.28398568  0.42130069     0.05900
C764        C  0.75730180  0.28064484  0.37522708    -0.02700
Br765      Br  0.79758766  0.27705376  0.35990447    -0.02400
H766        H  0.74640348  0.28275988  0.30385170     0.09800
H767        H  0.71138483  0.28801447  0.46576165     0.07800
Br768      Br  0.65851337  0.29141796  0.40848254    -0.02800
C769        C  0.52068016  0.29058223  0.11600112    -0.09400
C770        C  0.53231438  0.29661731  0.06969374     0.06800
C771        C  0.56607932  0.30263141  0.05830335    -0.03200
C772        C  0.58804610  0.30345687  0.09330663    -0.07700
C773        C  0.57689084  0.29862037  0.13983324     0.05900
C774        C  0.54274090  0.29172730  0.15102978    -0.02700
Br775      Br  0.52637006  0.28722488  0.21390810    -0.02400
H776        H  0.49494777  0.28647609  0.12510388     0.09800
H777        H  0.61452862  0.30956577  0.08442707     0.07800
Br778      Br  0.58437795  0.31311078  0.99600083    -0.02800
C779        C  0.72303430  0.24200088  0.11889446    -0.09400
C780        C  0.71678666  0.24743200  0.07317994     0.06800
C781        C  0.71135322  0.27509594  0.06306636    -0.03200
C782        C  0.70965938  0.29509774  0.09898614    -0.07700
C783        C  0.71356873  0.28820136  0.14507632     0.05900
C784        C  0.72160676  0.26224129  0.15479319    -0.02700
Br785      Br  0.72649410  0.25036648  0.21662841    -0.02400
H786        H  0.72717415  0.22074763  0.12694499     0.09800
H787        H  0.70278863  0.31453521  0.09122385     0.07800
Br788      Br  0.70168031  0.28389773  0.00170971    -0.02800
C789        C  0.75778085  0.46133640  0.16930076    -0.09400
C790        C  0.72527120  0.43219487  0.15734350     0.06800
C791        C  0.71300255  0.42958500  0.11209192    -0.03200
C792        C  0.73432114  0.45467973  0.07872793    -0.07700
C793        C  0.76801068  0.48271920  0.08971330     0.05900
C794        C  0.77898219  0.48675564  0.13612617    -0.02700
Br795      Br  0.82257540  0.02624429  0.15604769    -0.02400
H796        H  0.76727546  0.46370223  0.20423461     0.09800
H797        H  0.72539865  0.45101343  0.04333412     0.07800
Br798      Br  0.66866187  0.39077464  0.09332011    -0.02800
C799        C  0.60092812  0.06879895  0.98089842    -0.09400
C800        C  0.57070619  0.06664310  0.00127192     0.06800
C801        C  0.57525591  0.09612950  0.02566130    -0.03200
C802        C  0.60796950  0.12738828  0.02466920    -0.07700
C803        C  0.63806421  0.12982984  0.00360943     0.05900
C804        C  0.63439802  0.09921361  0.98356879    -0.02700
Br805      Br  0.67391123  0.09538195  0.96338127    -0.02400
H806        H  0.59879544  0.04652841  0.96308134     0.09800
H807        H  0.60968583  0.14989620  0.04117682     0.07800
Br808      Br  0.53961523  0.09523981  0.06564234    -0.02800
C809        C  0.50272268  0.42231176  0.95234866    -0.09400
C810        C  0.49641745  0.43561333  0.99287964     0.06800
C811        C  0.98807232  0.41613316  0.03424291    -0.03200
C812        C  0.98600266  0.38384478  0.03459590    -0.07700
C813        C  0.49238817  0.37032469  0.99415044     0.05900
C814        C  0.50092680  0.39006735  0.95261259    -0.02700
Br815      Br  0.51301473  0.37592895  0.89596418    -0.02400
H816        H  0.50959544  0.43735724  0.92048376     0.09800
H817        H  0.97954312  0.36926646  0.06681408     0.07800
Br818      Br  0.98038034  0.43312302  0.09143976    -0.02800
C819        C  0.87769185  0.48564993  0.01891829    -0.09400
C820        C  0.87762910  0.01425023  0.99879852     0.06800
C821        C  0.90876521  0.03960086  0.97511828    -0.03200
C822        C  0.93755517  0.03471541  0.96992807    -0.07700
C823        C  0.93791286  0.00661438  0.99146835     0.05900
C824        C  0.90763969  0.48270054  0.01779555    -0.02700
Br825      Br  0.90598586  0.44803611  0.05877892    -0.02400
H826        H  0.85451523  0.46562598  0.03729925     0.09800
H827        H  0.96031264  0.05391365  0.95003716     0.07800
Br828      Br  0.91605718  0.08357845  0.95379591    -0.02800
C829        C  0.93455199  0.19718466  0.56548398    -0.09400
C830        C  0.96881962  0.20469756  0.57448021     0.06800
C831        C  0.98091739  0.21089988  0.62025692    -0.03200
C832        C  0.95824407  0.20812088  0.65643670    -0.07700
C833        C  0.92350532  0.19927595  0.64762080     0.05900
C834        C  0.91175303  0.19410109  0.60165186    -0.02700
Br835      Br  0.86358539  0.17799837  0.58688634    -0.02400
H836        H  0.92472683  0.19138685  0.53050690     0.09800
H837        H  0.96746322  0.21200484  0.69167646     0.07800
Br838      Br  0.02780480  0.22219542  0.63491650    -0.02800
C839        C  0.77763088  0.04566193  0.85569867    -0.09400
C840        C  0.78317162  0.07939866  0.86066588     0.06800
C841        C  0.78887186  0.09387597  0.90532274    -0.03200
C842        C  0.79238359  0.07612650  0.94294402    -0.07700
C843        C  0.79027890  0.04398709  0.93676867     0.05900
C844        C  0.78104737  0.02795806  0.89320996    -0.02700
Br845      Br  0.77450994  0.98264269  0.88289113    -0.02400
H846        H  0.77292939  0.03395225  0.82172444     0.09800
H847        H  0.79914360  0.08854703  0.97647720     0.07800
Br848      Br  0.79671330  0.13954160  0.91590577    -0.02800
C849        C  0.97063954  0.25802226  0.88867117    -0.09400
C850        C  0.95422146  0.25152303  0.93235992     0.06800
C851        C  0.92053289  0.22157619  0.93932657    -0.03200
C852        C  0.90276789  0.19997995  0.90181438    -0.07700
C853        C  0.91807684  0.20819740  0.85721348     0.05900
C854        C  0.95297067  0.23660965  0.85127118    -0.02700
Br855      Br  0.97734639  0.24797302  0.79240103    -0.02400
H856        H  0.99683940  0.28065023  0.88326952     0.09800
H857        H  0.87600135  0.17835222  0.90685672     0.07800
Br858      Br  0.89661023  0.21105168  0.99827518    -0.02800
C859        C  0.79770052  0.07910126  0.60771845    -0.09400
C860        C  0.78225729  0.07095348  0.65226149     0.06800
C861        C  0.74859554  0.04068441  0.65873418    -0.03200
C862        C  0.72968019  0.02151241  0.62055210    -0.07700
C863        C  0.74350753  0.03187874  0.57554988     0.05900
C864        C  0.77843370  0.06004695  0.56925931    -0.02700
Br865      Br  0.79942011  0.07613756  0.50894126    -0.02400
H866        H  0.82370107  0.10188221  0.60232276     0.09800
H867        H  0.70318457  0.99932336  0.62582467     0.07800
Br868      Br  0.72639298  0.02461354  0.71864991    -0.02800
C869        C  0.82672252  0.25568103  0.57346946    -0.09400
C870        C  0.79395686  0.25096054  0.56144734     0.06800
C871        C  0.76348827  0.22492767  0.58577946    -0.03200
C872        C  0.76694726  0.20547369  0.62171092    -0.07700
C873        C  0.80049024  0.21343284  0.63643862     0.05900
C874        C  0.83052016  0.23977864  0.61225109    -0.02700
Br875      Br  0.87826949  0.25937444  0.63186831    -0.02400
H876        H  0.85049266  0.27431355  0.55461837     0.09800
H877        H  0.74358425  0.18606511  0.64054407     0.07800
Br878      Br  0.71725316  0.21722269  0.57567208    -0.02800
C879        C  0.74044459  0.21673508  0.87943109    -0.09400
C880        C  0.75195996  0.21630642  0.92412663     0.06800
C881        C  0.78502455  0.21932916  0.92989151    -0.03200
C882        C  0.80452535  0.21977930  0.89101949    -0.07700
C883        C  0.79093985  0.21606843  0.84646665     0.05900
C884        C  0.75959128  0.21664952  0.84068439    -0.02700
Br885      Br  0.74078121  0.21592407  0.78090670    -0.02400
H886        H  0.71541556  0.21519059  0.87471858     0.09800
H887        H  0.82864044  0.21956791  0.89599625     0.07800
Br888      Br  0.80229705  0.21772576  0.98979423    -0.02800
O889        O  0.83143941  0.61508470  0.69404654    -0.85600
O890        O  0.89627784  0.67157137  0.71845605    -0.82700
C891        C  0.89912736  0.69230764  0.68677644     0.97800
O892        O  0.88121995  0.70679667  0.68878467    -0.82700
O893        O  0.82650896  0.71743219  0.70848999    -0.85400
C894        C  0.80470074  0.69734624  0.67904716     1.02400
O895        O  0.78745030  0.66463562  0.68629151    -0.78100
O896        O  0.77797155  0.60118336  0.71612660    -0.78300
C897        C  0.79833563  0.59691684  0.68943389     1.02300
O898        O  0.81243437  0.59938850  0.78917228    -0.85600
O899        O  0.87349636  0.66004563  0.81423478    -0.82700
C900        C  0.89540096  0.69245007  0.81676571     0.97900
O901        O  0.89760623  0.71272830  0.78481953    -0.82700
O902        O  0.83792914  0.71535099  0.80539904    -0.85300
C903        C  0.80536485  0.70460086  0.80873037     1.02300
O904        O  0.78390188  0.68220339  0.78086853    -0.78100
O905        O  0.78111237  0.62201519  0.81138611    -0.78300
C906        C  0.79210406  0.60132535  0.81840803     1.02300
Cr907      Cr  0.85204186  0.63843854  0.75375720     1.93700
Cr908      Cr  0.85896390  0.70983717  0.74707132     1.93200
Cr909      Cr  0.78578655  0.64381357  0.74876695     1.39100
O910        O  0.83216823  0.66400505  0.74974984    -1.23400
C911        C  0.97078975  0.50450038  0.98924266     0.02800
C912        C  0.50445860  0.53507255  0.99100301    -0.13300
C913        C  0.53533098  0.53373440  0.99675726     0.00300
C914        C  0.53219006  0.50074310  0.99745554    -0.11800
C915        C  0.49927500  0.97006531  0.99172930     0.02800
C916        C  0.96893270  0.97214985  0.98674561    -0.11200
H917        H  0.50665056  0.56016622  0.98873760     0.08400
H918        H  0.55518563  0.49863532  0.00284632     0.06000
H919        H  0.94383070  0.94836399  0.98156066     0.05800
C920        C  0.80163553  0.52965475  0.97439366     0.02800
C921        C  0.83268961  0.52852011  0.96873059    -0.13300
C922        C  0.84530835  0.51699991  0.00485552     0.00300
C923        C  0.82491821  0.00492944  0.04609294    -0.11800
C924        C  0.79258865  0.00357838  0.05109399     0.02800
C925        C  0.78161619  0.51698938  0.01549195    -0.11200
H926        H  0.84644547  0.53599935  0.93562449     0.08400
H927        H  0.83325062  0.99477884  0.07387810     0.06000
H928        H  0.75685770  0.51631842  0.01900650     0.05800
C929        C  0.72707671  0.70769924  0.96342946     0.02800
C930        C  0.69502376  0.67550077  0.96404292    -0.13300
C931        C  0.67230618  0.66441122  0.00306174     0.00300
C932        C  0.68125555  0.68787945  0.04016303    -0.11800
C933        C  0.71146687  0.72156569  0.03765800     0.02800
C934        C  0.73485828  0.73100053  0.99986856    -0.11200
H935        H  0.68796282  0.65922884  0.93370668     0.08400
H936        H  0.66423964  0.68062655  0.07057978     0.06000
H937        H  0.75866346  0.75661925  0.99840730     0.05800
C938        C  0.51057195  0.80026989  0.03453235     0.02800
C939        C  0.49128328  0.77353392  0.00285907    -0.13300
C940        C  0.97184772  0.77797868  0.96857732     0.00300
C941        C  0.97168598  0.80927113  0.96614179    -0.11800
C942        C  0.49150124  0.83657792  0.99706966     0.02800
C943        C  0.51050671  0.83154239  0.03161002    -0.11200
H944        H  0.49198133  0.74970695  0.00429315     0.08400
H945        H  0.95634300  0.81238300  0.93981009     0.06000
H946        H  0.52606652  0.85234705  0.05564472     0.05800
O947        O  0.59859896  0.81657328  0.27858847    -0.85600
O948        O  0.65910315  0.87198801  0.30934764    -0.82700
C949        C  0.69106996  0.89194396  0.31866139     0.97800
O950        O  0.71488383  0.89391847  0.29165462    -0.82700
O951        O  0.70825852  0.83107370  0.30887439    -0.85400
C952        C  0.69600649  0.79878734  0.31042396     1.02400
O953        O  0.67552207  0.77900503  0.27917803    -0.78100
O954        O  0.61491814  0.77940957  0.29694270    -0.78300
C955        C  0.59489027  0.79125196  0.30277220     1.02300
O956        O  0.62381869  0.83915625  0.18476893    -0.85600
O957        O  0.68186332  0.89885961  0.21563948    -0.82700
C958        C  0.70737929  0.90280256  0.19027994     0.97900
O959        O  0.71898493  0.88251777  0.19402485    -0.82700
O960        O  0.71984121  0.82231700  0.21221828    -0.85300
C961        C  0.70003682  0.80141703  0.18143738     1.02300
O962        O  0.66749259  0.79012263  0.18209904    -0.78100
O963        O  0.60328676  0.78382806  0.20027684    -0.78300
C964        C  0.60303616  0.80743475  0.17625478     1.02300
Cr965      Cr  0.64263900  0.85506264  0.24689106     1.93700
Cr966      Cr  0.71202645  0.85567296  0.25111630     1.93200
Cr967      Cr  0.64209980  0.78647561  0.23987037     1.39100
O968        O  0.66552021  0.83239185  0.24567093    -1.23400
C969        C  0.53000805  0.99525366  0.50839505     0.02800
C970        C  0.99743578  0.96384637  0.50445454    -0.13300
C971        C  0.96622101  0.96444245  0.49983186     0.00300
C972        C  0.96792431  0.99656486  0.49732388    -0.11800
C973        C  0.99990782  0.52815737  0.50415087     0.02800
C974        C  0.53083633  0.52699099  0.50963060    -0.11200
H975        H  0.99642187  0.93913725  0.50432643     0.08400
H976        H  0.94407580  0.99663212  0.48997249     0.06000
H977        H  0.55593044  0.55084312  0.51465954     0.05800
C978        C  0.69925202  0.97853437  0.46878388     0.02400
C979        C  0.66866812  0.98065282  0.46841669    -0.13300
C980        C  0.66274316  0.99935122  0.50244478     0.00300
C981        C  0.68797182  0.51666708  0.53643050    -0.11800
C982        C  0.71912470  0.51551532  0.53666824     0.02800
C983        C  0.72479804  0.99646930  0.50257325    -0.11200
H984        H  0.64878642  0.96658582  0.44256428     0.08400
H985        H  0.68316278  0.53079507  0.56315845     0.06000
H986        H  0.74805579  0.99429004  0.50358674     0.05800
C987        C  0.98889273  0.69993371  0.53700408     0.02800
C988        C  0.99981050  0.72103498  0.49714442    -0.13300
C989        C  0.51590919  0.71387199  0.46006503     0.00300
C990        C  0.51839326  0.68374228  0.46204664    -0.11800
C991        C  0.00743920  0.66228873  0.50169679     0.02800
C992        C  0.99356957  0.67133870  0.53947632    -0.11200
H993        H  0.99541493  0.74265923  0.49489898     0.08400
H994        H  0.52826736  0.67668608  0.43212881     0.06000
H995        H  0.98479260  0.65517114  0.57044439     0.05800
C996        C  0.77451988  0.79263015  0.45858222     0.02800
C997        C  0.80429397  0.82663846  0.45999764    -0.13300
C998        C  0.82960786  0.83599394  0.49433875     0.00300
C999        C  0.82322064  0.81166705  0.52925106    -0.11800
C1000       C  0.79463752  0.77682692  0.52759320     0.02800
C1001       C  0.77028597  0.76746899  0.49152238    -0.11200
H1002       H  0.80789579  0.84566097  0.43394109     0.08400
H1003       H  0.84203212  0.81962355  0.55690927     0.06000
H1004       H  0.74885580  0.74077979  0.48794797     0.05800
C1005       C  0.53114754  0.59201693  0.48389100    -0.09400
C1006       C  0.00156285  0.56244644  0.50406962     0.06800
C1007       C  0.97490710  0.56679775  0.52482390    -0.03200
C1008       C  0.97710411  0.59900463  0.52205443    -0.07700
C1009       C  0.00676906  0.62857263  0.50241801     0.05900
C1010       C  0.53459055  0.62494410  0.48449553    -0.02700
Br1011     Br  0.57940464  0.66400643  0.46464720    -0.02400
H1012       H  0.55226685  0.58984552  0.46811539     0.09800
H1013       H  0.95543647  0.60095420  0.53638658     0.07800
Br1014     Br  0.93650859  0.53171863  0.56210172    -0.02800
C1015       C  0.60495048  0.98129884  0.54069162    -0.09400
C1016       C  0.62912273  0.99889788  0.50417598     0.06800
C1017       C  0.62071573  0.51545181  0.46974761    -0.03200
C1018       C  0.58829003  0.51379920  0.47179093    -0.07700
C1019       C  0.56374387  0.99571141  0.50782219     0.05900
C1020       C  0.57241898  0.97957463  0.54273703    -0.02700
Br1021     Br  0.54170759  0.95654994  0.59500138    -0.02400
H1022       H  0.61140180  0.96877620  0.56760773     0.09800
H1023       H  0.58216526  0.52673665  0.44508554     0.07800
Br1024     Br  0.65335757  0.54187711  0.42048416    -0.02800
C1025       C  0.87546911  0.88928637  0.53509576    -0.09400
C1026       C  0.86369372  0.87029024  0.49375082     0.06800
C1027       C  0.88668344  0.88244620  0.45452183    -0.03200
C1028       C  0.91994241  0.91309847  0.45702259    -0.07700
C1029       C  0.93141550  0.93167468  0.49838130     0.05900
C1030       C  0.90908501  0.91930781  0.53778292    -0.02700
Br1031     Br  0.92432130  0.94145004  0.59671050    -0.02400
H1032       H  0.85875079  0.88023967  0.56589339     0.09800
H1033       H  0.93720564  0.92220230  0.42672128     0.07800
Br1034     Br  0.87606265  0.85702255  0.39779927    -0.02800
C1035       C  0.52153660  0.72111571  0.37457300    -0.09400
C1036       C  0.52971071  0.73680695  0.41836447     0.06800
C1037       C  0.55460605  0.77304384  0.42116771    -0.03200
C1038       C  0.57289358  0.79177259  0.38123148    -0.07700
C1039       C  0.56730435  0.77490446  0.33871152     0.05900
C1040       C  0.54044097  0.73971036  0.33507503    -0.02700
Br1041     Br  0.53072208  0.71523911  0.27754886    -0.02400
H1042       H  0.50194386  0.69361792  0.37148910     0.09800
H1043       H  0.59387917  0.81880146  0.38422057     0.07800
Br1044     Br  0.56881667  0.79768589  0.47862642    -0.02800
C1045       C  0.67568314  0.89881525  0.39869673    -0.09400
C1046       C  0.69935210  0.91330430  0.36087936     0.06800
C1047       C  0.72706786  0.94853118  0.36284840    -0.03200
C1048       C  0.72825319  0.96932423  0.40001001    -0.07700
C1049       C  0.70247287  0.95527879  0.43549890     0.05900
C1050       C  0.67718569  0.91934928  0.43582930    -0.02700
Br1051     Br  0.64337256  0.89736317  0.48564995    -0.02400
H1052       H  0.65495991  0.87152170  0.39858982     0.09800
H1053       H  0.74812095  0.99688986  0.39990487     0.07800
Br1054     Br  0.76188565  0.97046545  0.31424643    -0.02800
C1055       C  0.73735476  0.78185975  0.33903461    -0.09400
C1056       C  0.70831631  0.78566217  0.34791483     0.06800
C1057       C  0.69800279  0.78616462  0.39411881    -0.03200
C1058       C  0.71816967  0.78529130  0.43051645    -0.07700
C1059       C  0.74873884  0.78401293  0.42133219     0.05900
C1060       C  0.75731509  0.78068699  0.37525902    -0.02700
Br1061     Br  0.79761133  0.77711259  0.35994258    -0.02400
H1062       H  0.74642814  0.78281140  0.30388098     0.09800
H1063       H  0.71135920  0.78800534  0.46578613     0.07800
Br1064     Br  0.65847685  0.79138108  0.40849410    -0.02800
C1065       C  0.52071604  0.79064649  0.11598831    -0.09400
C1066       C  0.53233516  0.79661847  0.06967471     0.06800
C1067       C  0.56607873  0.80257269  0.05829005    -0.03200
C1068       C  0.58803973  0.80340120  0.09330438    -0.07700
C1069       C  0.57689867  0.79862518  0.13983409     0.05900
C1070       C  0.54277050  0.79179418  0.15102610    -0.02700
Br1071     Br  0.52642462  0.78737884  0.21390441    -0.02400
H1072       H  0.49500130  0.78658731  0.12508581     0.09800
H1073       H  0.61450944  0.80946897  0.08442841     0.07800
Br1074     Br  0.58436390  0.81297451  0.99597805    -0.02800
C1075       C  0.72306943  0.74202381  0.11891966    -0.09400
C1076       C  0.71682003  0.74744937  0.07320305     0.06800
C1077       C  0.71137306  0.77510408  0.06308604    -0.03200
C1078       C  0.70966784  0.79510164  0.09900329    -0.07700
C1079       C  0.71358125  0.78821188  0.14509508     0.05900
C1080       C  0.72163283  0.76226182  0.15481598    -0.02700
Br1081     Br  0.72653040  0.75039952  0.21665405    -0.02400
H1082       H  0.72721909  0.72077738  0.12697343     0.09800
H1083       H  0.70278758  0.81453163  0.09123736     0.07800
Br1084     Br  0.70169971  0.78389876  0.00172575    -0.02800
C1085       C  0.75777492  0.96134134  0.16929804    -0.09400
C1086       C  0.72526760  0.93219699  0.15734092     0.06800
C1087       C  0.71299788  0.92958255  0.11208910    -0.03200
C1088       C  0.73431372  0.95467795  0.07872494    -0.07700
C1089       C  0.76800157  0.98272025  0.08971031     0.05900
C1090       C  0.77897444  0.98675952  0.13612233    -0.02700
Br1091     Br  0.82258167  0.52624015  0.15605596    -0.02400
H1092       H  0.76726965  0.96370955  0.20423234     0.09800
H1093       H  0.72539156  0.95100950  0.04333077     0.07800
Br1094     Br  0.66866159  0.89076435  0.09331656    -0.02800
C1095       C  0.60096176  0.56883007  0.98087903    -0.09400
C1096       C  0.57074012  0.56667437  0.00125367     0.06800
C1097       C  0.57529168  0.59615985  0.02564780    -0.03200
C1098       C  0.60800724  0.62741696  0.02466221    -0.07700
C1099       C  0.63810213  0.62985793  0.00360368     0.05900
C1100       C  0.63443317  0.59924290  0.98355463    -0.02700
Br1101     Br  0.67394452  0.59540970  0.96336230    -0.02400
H1102       H  0.59882764  0.54656035  0.96305782     0.09800
H1103       H  0.60972511  0.64992392  0.04117495     0.07800
Br1104     Br  0.53965097  0.59527048  0.06562858    -0.02800
C1105       C  0.50268586  0.92228468  0.95234030    -0.09400
C1106       C  0.49639132  0.93558486  0.99288032     0.06800
C1107       C  0.98806763  0.91610829  0.03424234    -0.03200
C1108       C  0.98600817  0.88382465  0.03458708    -0.07700
C1109       C  0.49238443  0.87030672  0.99413401     0.05900
C1110       C  0.50090157  0.89004590  0.95259550    -0.02700
Br1111     Br  0.51297797  0.87591348  0.89593270    -0.02400
H1112       H  0.50954355  0.93732825  0.92047521     0.09800
H1113       H  0.97956366  0.86924892  0.06680580     0.07800
Br1114     Br  0.98038809  0.93309694  0.09144865    -0.02800
C1115       C  0.87766326  0.98562535  0.01890702    -0.09400
C1116       C  0.87765293  0.51427292  0.99881287     0.06800
C1117       C  0.90878865  0.53962874  0.97513667    -0.03200
C1118       C  0.93758180  0.53474823  0.96994351    -0.07700
C1119       C  0.93794296  0.50664690  0.99147744     0.05900
C1120       C  0.90760829  0.98267099  0.01778607    -0.02700
Br1121     Br  0.90595036  0.94800432  0.05876963    -0.02400
H1122       H  0.85448557  0.96560455  0.03728955     0.09800
H1123       H  0.96033806  0.55394974  0.95005385     0.07800
Br1124     Br  0.91607458  0.58360607  0.95382352    -0.02800
C1125       C  0.93455816  0.69718142  0.56546226    -0.09400
C1126       C  0.96882122  0.70468056  0.57445765     0.06800
C1127       C  0.98091956  0.71087870  0.62023399    -0.03200
C1128       C  0.95825002  0.70810786  0.65641432    -0.07700
C1129       C  0.92351465  0.69927534  0.64759937     0.05900
C1130       C  0.91176281  0.69410546  0.60163049    -0.02700
Br1131     Br  0.86359862  0.67801717  0.58686450    -0.02400
H1132       H  0.92473279  0.69138818  0.53048498     0.09800
H1133       H  0.96746895  0.71198766  0.69165398     0.07800
Br1134     Br  0.02780272  0.72215949  0.63489174    -0.02800
C1135       C  0.77765126  0.54567287  0.85570048    -0.09400
C1136       C  0.78319942  0.57941263  0.86066495     0.06800
C1137       C  0.78890794  0.59389382  0.90532045    -0.03200
C1138       C  0.79241417  0.57614173  0.94294330    -0.07700
C1139       C  0.79029770  0.54399662  0.93677158     0.05900
C1140       C  0.78106391  0.52796719  0.89321306    -0.02700
Br1141     Br  0.77452027  0.48264928  0.88289525    -0.02400
H1142       H  0.77294543  0.53396101  0.82172732     0.09800
H1143       H  0.79917928  0.58856422  0.97647509     0.07800
Br1144     Br  0.79676853  0.63956726  0.91589971    -0.02800
C1145       C  0.97066957  0.75801768  0.88863772    -0.09400
C1146       C  0.95425441  0.75151637  0.93232858     0.06800
C1147       C  0.92056889  0.72156645  0.93929917    -0.03200
C1148       C  0.90280217  0.69997043  0.90178816    -0.07700
C1149       C  0.91810594  0.70819169  0.85718479     0.05900
C1150       C  0.95299878  0.73660500  0.85123874    -0.02700
Br1151     Br  0.97737026  0.74796949  0.79236559    -0.02400
H1152       H  0.99686786  0.78064753  0.88323362     0.09800
H1153       H  0.87603758  0.67834038  0.90683376     0.07800
Br1154     Br  0.89665150  0.71103723  0.99825180    -0.02800
C1155       C  0.79768744  0.57912065  0.60769646    -0.09400
C1156       C  0.78225652  0.57096507  0.65224640     0.06800
C1157       C  0.74860531  0.54068474  0.65872999    -0.03200
C1158       C  0.72968623  0.52150563  0.62055335    -0.07700
C1159       C  0.74350153  0.53187478  0.57554635     0.05900
C1160       C  0.77841788  0.56005841  0.56924352    -0.02700
Br1161     Br  0.79938439  0.57615534  0.50891731    -0.02400
H1162       H  0.82368006  0.60191090  0.60229230     0.09800
H1163       H  0.70319803  0.49930617  0.62583470     0.07800
Br1164     Br  0.72642771  0.52460429  0.71865634    -0.02800
C1165       C  0.82671919  0.75569982  0.57348321    -0.09400
C1166       C  0.79395443  0.75098998  0.56148144     0.06800
C1167       C  0.76348910  0.72496739  0.58582815    -0.03200
C1168       C  0.76694927  0.70550696  0.62174973    -0.07700
C1169       C  0.80049320  0.71345170  0.63645404     0.05900
C1170       C  0.83052074  0.73979163  0.61225571    -0.02700
Br1171     Br  0.87827362  0.75937466  0.63185047    -0.02400
H1172       H  0.85048642  0.77432921  0.55462411     0.09800
H1173       H  0.74358872  0.68610619  0.64059454     0.07800
Br1174     Br  0.71726173  0.71729263  0.57575541    -0.02800
C1175       C  0.74048916  0.71676738  0.87944878    -0.09400
C1176       C  0.75200828  0.71634023  0.92414277     0.06800
C1177       C  0.78507443  0.71936459  0.92990074    -0.03200
C1178       C  0.80456908  0.71980803  0.89102482    -0.07700
C1179       C  0.79097768  0.71609235  0.84647471     0.05900
C1180       C  0.75963082  0.71667768  0.84069852    -0.02700
Br1181     Br  0.74081627  0.71595269  0.78092434    -0.02400
H1182       H  0.71546019  0.71522381  0.87474034     0.09800
H1183       H  0.82868430  0.71959606  0.89599720     0.07800
Br1184     Br  0.80235894  0.71777459  0.98979993    -0.02800
loop_ 
_geom_bond_atom_site_label_1 
_geom_bond_atom_site_label_2 
_geom_bond_distance 
_geom_bond_site_symmetry_2 
_ccdc_geom_bond_type 
O1          Cr19   1.991       .  S
O1            C9   1.265       .  A
O2          Cr19   2.002       .  S
O2            C3   1.262       .  A
C3            O4   1.258       .  A
C3          C241   1.469       .  S
O4          Cr20   1.978       .  S
O5          Cr20   1.994       .  S
O5            C6   1.262       .  A
C6            O7   1.269       .  A
C6          C281   1.489       .  S
O7          Cr21   2.015       .  S
O8          Cr21   1.994       .  S
O8            C9   1.265       .  A
C9          C268   1.476       .  S
O10         Cr19   1.988       .  S
O10          C18   1.260       .  A
O11         Cr19   1.998       .  S
O11          C12   1.264       .  A
C12          O13   1.262       .  A
C12         C261   1.475       .  S
O13         Cr20   1.990       .  S
O14         Cr20   1.989       .  S
O14          C15   1.263       .  A
C15          O16   1.263       .  A
C15         C291   1.475       .  S
O16         Cr21   1.991       .  S
O17         Cr21   2.013       .  S
O17          C18   1.267       .  A
C18         C248   1.481       .  S
Cr19         O22   1.772       .  S
Cr20         O22   1.761       .  S
Cr21         O22   1.765       .  S
C23         C231   1.506       .  S
C23         C616   1.410       .  A
C23         C324   1.408   1_545  A
C24          C25   1.411       .  A
C24         C615   1.410   1_455  A
C24          H29   1.078       .  S
C25         C208   1.504   1_556  S
C25          C26   1.410       .  A
C26         C323   1.403   1_445  A
C26          H30   1.083   1_546  S
C27         C218   1.482       .  S
C27         C322   1.403   1_655  A
C27         C620   1.403       .  A
C28         C319   1.408       .  A
C28         C619   1.403       .  A
C28          H31   1.083       .  S
C32         C251   1.482       .  S
C32          C33   1.408       .  A
C32          C37   1.402   1_556  A
C33          C34   1.409   1_556  A
C33          H38   1.081       .  S
C34         C228   1.506   1_554  S
C34         C331   1.410       .  A
C35          C36   1.406       .  A
C35         C330   1.410       .  A
C35          H39   1.082       .  S
C36         C201   1.488       .  S
C36         C333   1.405       .  A
C37         C332   1.405       .  A
C37          H40   1.084       .  S
C41         C288   1.475       .  S
C41          C42   1.405       .  A
C41          C46   1.398       .  A
C42          C43   1.406   1_556  A
C42          H47   1.081       .  S
C43         C211   1.504       .  S
C43          C44   1.411       .  A
C44          C45   1.407       .  A
C44          H48   1.082       .  S
C45         C188   1.475       .  S
C45          C46   1.398   1_554  A
C46          H49   1.084       .  S
C50         C178   1.476       .  S
C50          C51   1.402   1_455  A
C50          C55   1.404       .  A
C51         C644   1.402   1_554  A
C51          H56   1.084       .  S
C52         C258   1.476       .  S
C52          C53   1.406       .  A
C52         C643   1.402   1_556  A
C53         C646   1.406       .  A
C53          H57   1.083       .  S
C54         C221   1.492       .  S
C54          C55   1.406   1_656  A
C54         C645   1.406       .  A
C55          H58   1.084       .  S
O59         Cr77   2.019       .  S
O59          C67   1.267       .  A
O60         Cr77   1.958       .  S
O60          C61   1.256       .  A
C61          O62   1.267       .  A
C61         C158   1.479       .  S
O62         Cr78   2.024       .  S
O63         Cr78   1.957       .  S
O63          C64   1.254       .  A
C64          O65   1.271       .  A
C64         C168   1.472       .  S
O65         Cr79   2.038       .  S
O66         Cr79   1.952       .  S
O66          C67   1.255       .  A
C67         C151   1.463       .  S
O68         Cr77   1.964       .  S
O68          C76   1.256       .  A
O69         Cr77   2.026       .  S
O69          C70   1.269       .  A
C70          O71   1.259       .  A
C70         C198   1.471       .  S
O71         Cr78   1.966       .  S
O72         Cr78   2.033       .  S
O72          C73   1.269       .  A
C73          O74   1.255       .  A
C73         C191   1.469       .  S
O74         Cr79   1.957       .  S
O75         Cr79   2.031       .  S
O75          C76   1.270       .  A
C76         C181   1.472       .  S
Cr77         O80   1.766       .  S
Cr78         O80   1.771       .  S
Cr79         O80   1.769       .  S
C81         C131   1.482       .  S
C81         C674   1.406   1_455  A
C81         C382   1.403       .  A
C82          C83   1.404       .  A
C82         C673   1.406       .  A
C82          H87   1.084       .  S
C83         C141   1.480       .  S
C83          C84   1.402       .  A
C84         C381   1.408       .  A
C84          H88   1.081       .  S
C85         C118   1.498       .  S
C85         C380   1.408   1_545  A
C85         C678   1.408       .  A
C86         C377   1.403   1_545  A
C86         C677   1.408   1_455  A
C86          H89   1.083       .  S
C90         C161   1.476       .  S
C90          C91   1.405       .  A
C90          C95   1.404       .  A
C91          C92   1.398       .  A
C91          H96   1.084       .  S
C92         C128   1.478       .  S
C92         C389   1.397       .  A
C93          C94   1.406       .  A
C93         C388   1.397   1_545  A
C93          H97   1.084       .  S
C94         C271   1.477       .  S
C94         C391   1.405   1_545  A
C95         C390   1.405       .  A
C95          H98   1.084       .  S
C99         C238   1.473       .  S
C99         C100   1.401       .  A
C99         C104   1.400       .  A
C100        C693   1.404       .  A
C100        H105   1.084       .  S
C101        C148   1.486       .  S
C101        C102   1.410       .  A
C101        C692   1.404   1_455  A
C102        C695   1.404       .  A
C102        H106   1.081       .  S
C103        C121   1.494       .  S
C103        C104   1.403       .  A
C103        C694   1.404       .  A
C104        H107   1.084       .  S
C108        C171   1.481       .  S
C108        C109   1.408       .  A
C108        C113   1.410       .  A
C109        C110   1.402       .  A
C109        H114   1.083       .  S
C110        C138   1.495       .  S
C110        C111   1.399       .  A
C111        C112   1.413       .  A
C111        H115   1.083       .  S
C112        C278   1.504       .  S
C112        C113   1.411       .  A
C113        H116   1.081       .  S
C117        C122   1.401       .  A
C117        C710   1.411       .  A
C117        H124   1.082       .  S
C118        C119   1.416       .  A
C118        C709   1.411       .  A
C119        C120   1.396       .  A
C119       Br126   1.923       .  S
C120        C121   1.406       .  A
C120        H125   1.083       .  S
C121        C714   1.413       .  A
C122        C713   1.413       .  A
C122       Br123   1.923       .  S
C127        C128   1.404       .  A
C127        C132   1.402       .  A
C127        H134   1.083       .  S
C128        C425   1.406       .  A
C129        C130   1.398       .  A
C129        C424   1.406   1_545  A
C129       Br136   1.919       .  S
C130        C427   1.406   1_545  A
C130        H135   1.083       .  S
C131        C132   1.410       .  A
C131        C426   1.406       .  A
C132       Br133   1.918       .  S
C137        C138   1.408       .  A
C137        C142   1.400       .  A
C137        H144   1.083       .  S
C138        C139   1.417       .  A
C139        C140   1.403       .  A
C139       Br146   1.916       .  S
C140        C141   1.400       .  A
C140        H145   1.083       .  S
C141        C142   1.407       .  A
C142       Br143   1.918       .  S
C147        C148   1.406       .  A
C147        C152   1.395       .  A
C147        H154   1.083       .  S
C148        C149   1.416       .  A
C149        C150   1.400       .  A
C149       Br156   1.919       .  S
C150        C151   1.399       .  A
C150        H155   1.084       .  S
C151        C152   1.405       .  A
C152       Br153   1.919       .  S
C157        C158   1.405       .  A
C157        C162   1.393       .  A
C157        H164   1.084       .  S
C158        C159   1.413       .  A
C159        C160   1.405       .  A
C159       Br166   1.918       .  S
C160        C161   1.404       .  A
C160        H165   1.083       .  S
C161        C162   1.406       .  A
C162       Br163   1.921       .  S
C167        C168   1.401       .  A
C167        C172   1.399       .  A
C167        H174   1.079       .  S
C168        C169   1.408       .  A
C169        C170   1.404       .  A
C169       Br176   1.920       .  S
C170        C171   1.405       .  A
C170        H175   1.083       .  S
C171        C172   1.408       .  A
C172       Br173   1.916       .  S
C177        C178   1.401       .  A
C177        C182   1.400       .  A
C177        H184   1.083   1_455  S
C178        C179   1.408       .  A
C179        C180   1.401       .  A
C179       Br186   1.918   1_554  S
C180        C181   1.403       .  A
C180        H185   1.083       .  S
C181        C182   1.409       .  A
C182       Br183   1.917       .  S
C187        C188   1.401       .  A
C187        C192   1.399       .  A
C187        H194   1.084       .  S
C188        C189   1.410       .  A
C189        C190   1.397       .  A
C189       Br196   1.919       .  S
C190        C191   1.401       .  A
C190        H195   1.084       .  S
C191        C192   1.410       .  A
C192       Br193   1.912       .  S
C197        C198   1.402       .  A
C197        C202   1.401       .  A
C197        H204   1.084       .  S
C198        C199   1.405       .  A
C199        C200   1.399       .  A
C199       Br206   1.916       .  S
C200        C201   1.406       .  A
C200        H205   1.084       .  S
C201        C202   1.413       .  A
C202       Br499   1.920       .  S
Br203       C498   1.920   1_545  S
C207        C208   1.409   1_556  A
C207        C212   1.404       .  A
C207        H214   1.082       .  S
C208        C209   1.417       .  A
C209        C210   1.399       .  A
C209       Br216   1.924       .  S
C210        C211   1.407       .  A
C210        H215   1.082       .  S
C211        C212   1.419   1_554  A
C212       Br213   1.925       .  S
C217        C218   1.402   1_455  A
C217        C222   1.404       .  A
C217        H224   1.083       .  S
C218        C811   1.407   1_556  A
C219        C220   1.400       .  A
C219        C810   1.407   1_554  A
C219       Br226   1.917       .  S
C220        C813   1.407   1_554  A
C220        H225   1.083       .  S
C221        C222   1.416   1_655  A
C221        C812   1.407   1_556  A
C222       Br223   1.921       .  S
C227        C232   1.398       .  A
C227        C524   1.408   1_554  A
C227        H234   1.082       .  S
C228        C229   1.417       .  A
C228        C523   1.408   1_546  A
C229        C230   1.406       .  A
C229       Br236   1.923       .  S
C230        C231   1.411       .  A
C230        H235   1.082       .  S
C231        C528   1.417   1_546  A
C232        C527   1.417   1_554  A
C232       Br233   1.923       .  S
C237        C238   1.402       .  A
C237        C242   1.397       .  A
C237        H244   1.084       .  S
C238        C239   1.408       .  A
C239        C240   1.398       .  A
C239       Br246   1.919       .  S
C240        C241   1.403       .  A
C240        H245   1.083       .  S
C241        C242   1.409       .  A
C242       Br243   1.920       .  S
C247        C248   1.407       .  A
C247        C252   1.399       .  A
C247        H254   1.084       .  S
C248        C249   1.411       .  A
C249        C250   1.404       .  A
C249       Br256   1.914       .  S
C250        C251   1.404       .  A
C250        H255   1.084       .  S
C251        C252   1.407       .  A
C252       Br253   1.919   1_545  S
C257        C258   1.400       .  A
C257        C262   1.396       .  A
C257        H264   1.084       .  S
C258        C259   1.408       .  A
C259        C260   1.403       .  A
C259       Br266   1.917       .  S
C260        C261   1.404       .  A
C260        H265   1.082       .  S
C261        C262   1.411       .  A
C262       Br263   1.922       .  S
C267        C268   1.404       .  A
C267        C272   1.402       .  A
C267        H274   1.081       .  S
C268        C269   1.412       .  A
C269        C270   1.393       .  A
C269       Br276   1.923       .  S
C270        C271   1.401       .  A
C270        H275   1.084   1_545  S
C271        C272   1.410       .  A
C272       Br273   1.918       .  S
C277        C278   1.402       .  A
C277        C282   1.386       .  A
C277        H284   1.083       .  S
C278        C279   1.420       .  A
C279        C280   1.416       .  A
C279       Br286   1.918       .  S
C280        C281   1.409       .  A
C280        H285   1.083       .  S
C281        C282   1.413       .  A
C282       Br283   1.917       .  S
C287        C288   1.400       .  A
C287        C292   1.395       .  A
C287        H294   1.084       .  S
C288        C289   1.411       .  A
C289        C290   1.400       .  A
C289       Br296   1.920       .  S
C290        C291   1.403       .  A
C290        H295   1.084       .  S
C291        C292   1.413       .  A
C292       Br293   1.922       .  S
O297       Cr315   1.991       .  S
O297        C305   1.265       .  A
O298       Cr315   2.002       .  S
O298        C299   1.262       .  A
C299        O300   1.258       .  A
C299        C537   1.469       .  S
O300       Cr316   1.978       .  S
O301       Cr316   1.994       .  S
O301        C302   1.262       .  A
C302        O303   1.269       .  A
C302        C577   1.489       .  S
O303       Cr317   2.015       .  S
O304       Cr317   1.994       .  S
O304        C305   1.265       .  A
C305        C564   1.476       .  S
O306       Cr315   1.988       .  S
O306        C314   1.260       .  A
O307       Cr315   1.998       .  S
O307        C308   1.264       .  A
C308        O309   1.262       .  A
C308        C557   1.475       .  S
O309       Cr316   1.990       .  S
O310       Cr316   1.989       .  S
O310        C311   1.263       .  A
C311        O312   1.263       .  A
C311        C587   1.475       .  S
O312       Cr317   1.991       .  S
O313       Cr317   2.013       .  S
O313        C314   1.267       .  A
C314        C544   1.481       .  S
Cr315       O318   1.772       .  S
Cr316       O318   1.761       .  S
Cr317       O318   1.765       .  S
C319        C527   1.506       .  S
C319        C912   1.410       .  A
C320        C911   1.410   1_455  A
C320        C321   1.411       .  A
C320        H325   1.078       .  S
C321        C504   1.504   1_556  S
C321        C322   1.410       .  A
C322        H326   1.083   1_556  S
C323        C514   1.482       .  S
C323        C916   1.403       .  A
C324        C915   1.403       .  A
C324        H327   1.083       .  S
C328        C547   1.482       .  S
C328        C329   1.408       .  A
C328        C333   1.402   1_556  A
C329        C330   1.409   1_556  A
C329        H334   1.081       .  S
C330        C524   1.506   1_554  S
C331        C332   1.406       .  A
C331        H335   1.082   1_545  S
C332        C497   1.488   1_545  S
C333        H336   1.084       .  S
C337        C584   1.475       .  S
C337        C338   1.405       .  A
C337        C342   1.398       .  A
C338        C339   1.406   1_556  A
C338        H343   1.081       .  S
C339        C507   1.504       .  S
C339        C340   1.411       .  A
C340        C341   1.407       .  A
C340        H344   1.082       .  S
C341        C484   1.475       .  S
C341        C342   1.398   1_554  A
C342        H345   1.084       .  S
C346        C474   1.476       .  S
C346        C347   1.402   1_455  A
C346        C351   1.404       .  A
C347        C940   1.402   1_554  A
C347        H352   1.084       .  S
C348        C554   1.476       .  S
C348        C939   1.402   1_556  A
C348        C349   1.406       .  A
C349        C942   1.406       .  A
C349        H353   1.083       .  S
C350        C517   1.492       .  S
C350        C941   1.406       .  A
C350        C351   1.406   1_656  A
C351        H354   1.084       .  S
O355       Cr373   2.019       .  S
O355        C363   1.267       .  A
O356       Cr373   1.958       .  S
O356        C357   1.256       .  A
C357        O358   1.267       .  A
C357        C454   1.479       .  S
O358       Cr374   2.024       .  S
O359       Cr374   1.957       .  S
O359        C360   1.254       .  A
C360        O361   1.271       .  A
C360        C464   1.472       .  S
O361       Cr375   2.038       .  S
O362       Cr375   1.952       .  S
O362        C363   1.255       .  A
C363        C447   1.463       .  S
O364       Cr373   1.964       .  S
O364        C372   1.256       .  A
O365       Cr373   2.026       .  S
O365        C366   1.269       .  A
C366        O367   1.259       .  A
C366        C494   1.471       .  S
O367       Cr374   1.966       .  S
O368       Cr374   2.033       .  S
O368        C369   1.269       .  A
C369        O370   1.255       .  A
C369        C487   1.469       .  S
O370       Cr375   1.957       .  S
O371       Cr375   2.031       .  S
O371        C372   1.270       .  A
C372        C477   1.472       .  S
Cr373       O376   1.766       .  S
Cr374       O376   1.771       .  S
Cr375       O376   1.769       .  S
C377        C427   1.482       .  S
C377        C970   1.406   1_455  A
C378        C969   1.406       .  A
C378        C379   1.404       .  A
C378        H383   1.084       .  S
C379        C437   1.480       .  S
C379        C380   1.402       .  A
C380        H384   1.081       .  S
C381        C414   1.498       .  S
C381        C974   1.408       .  A
C382        C973   1.408   1_455  A
C382        H385   1.083       .  S
C386        C457   1.476       .  S
C386        C387   1.405       .  A
C386        C391   1.404       .  A
C387        C388   1.398       .  A
C387        H392   1.084       .  S
C388        C424   1.478       .  S
C389        C390   1.406       .  A
C389        H393   1.084       .  S
C390        C567   1.477       .  S
C391        H394   1.084       .  S
C395        C534   1.473       .  S
C395        C396   1.401       .  A
C395        C400   1.400       .  A
C396        C989   1.404       .  A
C396        H401   1.084       .  S
C397        C444   1.486       .  S
C397        C988   1.404   1_455  A
C397        C398   1.410       .  A
C398        C991   1.404       .  A
C398        H402   1.081       .  S
C399        C417   1.494       .  S
C399        C990   1.404       .  A
C399        C400   1.403       .  A
C400        H403   1.084       .  S
C404        C467   1.481       .  S
C404        C405   1.408       .  A
C404        C409   1.410       .  A
C405        C406   1.402       .  A
C405        H410   1.083       .  S
C406        C434   1.495       .  S
C406        C407   1.399       .  A
C407        C408   1.413       .  A
C407        H411   1.083       .  S
C408        C574   1.504       .  S
C408        C409   1.411       .  A
C409        H412   1.081       .  S
C413       C1006   1.411       .  A
C413        C418   1.401       .  A
C413        H420   1.082       .  S
C414       C1005   1.411       .  A
C414        C415   1.416       .  A
C415        C416   1.396       .  A
C415       Br422   1.923       .  S
C416        C417   1.406       .  A
C416        H421   1.083       .  S
C417       C1010   1.413       .  A
C418       C1009   1.413       .  A
C418       Br419   1.923       .  S
C423        C424   1.404       .  A
C423        C428   1.402       .  A
C423        H430   1.083       .  S
C425        C426   1.398       .  A
C425       Br432   1.919       .  S
C426        H431   1.083       .  S
C427        C428   1.410       .  A
C428       Br429   1.918       .  S
C433        C434   1.408       .  A
C433        C438   1.400       .  A
C433        H440   1.083       .  S
C434        C435   1.417       .  A
C435        C436   1.403       .  A
C435       Br442   1.916       .  S
C436        C437   1.400       .  A
C436        H441   1.083       .  S
C437        C438   1.407       .  A
C438       Br439   1.918       .  S
C443        C444   1.406       .  A
C443        C448   1.395       .  A
C443        H450   1.083       .  S
C444        C445   1.416       .  A
C445        C446   1.400       .  A
C445       Br452   1.919       .  S
C446        C447   1.399       .  A
C446        H451   1.084       .  S
C447        C448   1.405       .  A
C448       Br449   1.919       .  S
C453        C454   1.405       .  A
C453        C458   1.393       .  A
C453        H460   1.084       .  S
C454        C455   1.413       .  A
C455        C456   1.405       .  A
C455       Br462   1.918       .  S
C456        C457   1.404       .  A
C456        H461   1.083       .  S
C457        C458   1.406       .  A
C458       Br459   1.921       .  S
C463        C464   1.401       .  A
C463        C468   1.399       .  A
C463        H470   1.079       .  S
C464        C465   1.408       .  A
C465        C466   1.404       .  A
C465       Br472   1.920       .  S
C466        C467   1.405       .  A
C466        H471   1.083       .  S
C467        C468   1.408       .  A
C468       Br469   1.916       .  S
C473        C474   1.401       .  A
C473        C478   1.400       .  A
C473        H480   1.083   1_455  S
C474        C475   1.408       .  A
C475        C476   1.401       .  A
C475       Br482   1.918   1_554  S
C476        C477   1.403       .  A
C476        H481   1.083       .  S
C477        C478   1.409       .  A
C478       Br479   1.917       .  S
C483        C484   1.401       .  A
C483        C488   1.399       .  A
C483        H490   1.084       .  S
C484        C485   1.410       .  A
C485        C486   1.397       .  A
C485       Br492   1.919       .  S
C486        C487   1.401       .  A
C486        H491   1.084       .  S
C487        C488   1.410       .  A
C488       Br489   1.912       .  S
C493        C494   1.402       .  A
C493        C498   1.401       .  A
C493        H500   1.084       .  S
C494        C495   1.405       .  A
C495        C496   1.399       .  A
C495       Br502   1.916       .  S
C496        C497   1.406       .  A
C496        H501   1.084       .  S
C497        C498   1.413       .  A
C503        C504   1.409   1_556  A
C503        C508   1.404       .  A
C503        H510   1.082       .  S
C504        C505   1.417       .  A
C505        C506   1.399       .  A
C505       Br512   1.924       .  S
C506        C507   1.407       .  A
C506        H511   1.082       .  S
C507        C508   1.419   1_554  A
C508       Br509   1.925       .  S
C513        C514   1.402   1_455  A
C513        C518   1.404       .  A
C513        H520   1.083       .  S
C514       C1107   1.407   1_556  A
C515       C1106   1.407   1_554  A
C515        C516   1.400       .  A
C515       Br522   1.917       .  S
C516       C1109   1.407   1_554  A
C516        H521   1.083       .  S
C517       C1108   1.407   1_556  A
C517        C518   1.416   1_655  A
C518       Br519   1.921       .  S
C523        C528   1.398       .  A
C523        H530   1.082       .  S
C524        C525   1.417       .  A
C525        C526   1.406       .  A
C525       Br532   1.923       .  S
C526        C527   1.411       .  A
C526        H531   1.082       .  S
C528       Br529   1.923       .  S
C533        C534   1.402       .  A
C533        C538   1.397       .  A
C533        H540   1.084       .  S
C534        C535   1.408       .  A
C535        C536   1.398       .  A
C535       Br542   1.919       .  S
C536        C537   1.403       .  A
C536        H541   1.083       .  S
C537        C538   1.409       .  A
C538       Br539   1.920       .  S
C543        C544   1.407       .  A
C543        C548   1.399       .  A
C543        H550   1.084       .  S
C544        C545   1.411       .  A
C545        C546   1.404       .  A
C545       Br552   1.914       .  S
C546        C547   1.404       .  A
C546        H551   1.084       .  S
C547        C548   1.407       .  A
C548       Br549   1.919       .  S
C553        C554   1.400       .  A
C553        C558   1.396       .  A
C553        H560   1.084       .  S
C554        C555   1.408       .  A
C555        C556   1.403       .  A
C555       Br562   1.917       .  S
C556        C557   1.404       .  A
C556        H561   1.082       .  S
C557        C558   1.411       .  A
C558       Br559   1.922       .  S
C563        C564   1.404       .  A
C563        C568   1.402       .  A
C563        H570   1.081       .  S
C564        C565   1.412       .  A
C565        C566   1.393       .  A
C565       Br572   1.923       .  S
C566        C567   1.401       .  A
C566        H571   1.084       .  S
C567        C568   1.410       .  A
C568       Br569   1.918       .  S
C573        C574   1.402       .  A
C573        C578   1.386       .  A
C573        H580   1.083       .  S
C574        C575   1.420       .  A
C575        C576   1.416       .  A
C575       Br582   1.918       .  S
C576        C577   1.409       .  A
C576        H581   1.083       .  S
C577        C578   1.413       .  A
C578       Br579   1.917       .  S
C583        C584   1.400       .  A
C583        C588   1.395       .  A
C583        H590   1.084       .  S
C584        C585   1.411       .  A
C585        C586   1.400       .  A
C585       Br592   1.920       .  S
C586        C587   1.403       .  A
C586        H591   1.084       .  S
C587        C588   1.413       .  A
C588       Br589   1.922       .  S
O593       Cr611   1.991       .  S
O593        C601   1.265       .  A
O594       Cr611   2.002       .  S
O594        C595   1.262       .  A
C595        O596   1.258       .  A
C595        C833   1.469       .  S
O596       Cr612   1.978       .  S
O597       Cr612   1.994       .  S
O597        C598   1.262       .  A
C598        O599   1.269       .  A
C598        C873   1.489       .  S
O599       Cr613   2.015       .  S
O600       Cr613   1.994       .  S
O600        C601   1.265       .  A
C601        C860   1.476       .  S
O602       Cr611   1.988       .  S
O602        C610   1.260       .  A
O603       Cr611   1.998       .  S
O603        C604   1.264       .  A
C604        O605   1.262       .  A
C604        C853   1.475       .  S
O605       Cr612   1.990       .  S
O606       Cr612   1.989       .  S
O606        C607   1.263       .  A
C607        O608   1.263       .  A
C607        C883   1.475       .  S
O608       Cr613   1.991       .  S
O609       Cr613   2.013       .  S
O609        C610   1.267       .  A
C610        C840   1.481       .  S
Cr611       O614   1.772       .  S
Cr612       O614   1.761       .  S
Cr613       O614   1.765       .  S
C615        C823   1.506       .  S
C615        C916   1.408   1_545  A
C616        C617   1.411       .  A
C616        H621   1.078       .  S
C617        C800   1.504   1_556  S
C617        C618   1.410       .  A
C618        C915   1.403   1_545  A
C618        H622   1.083   1_546  S
C619        C810   1.482       .  S
C619        C914   1.403       .  A
C620        C911   1.408       .  A
C620        H623   1.083       .  S
C624        C843   1.482       .  S
C624        C625   1.408       .  A
C624        C629   1.402   1_556  A
C625        C626   1.409   1_556  A
C625        H630   1.081       .  S
C626        C820   1.506   1_554  S
C626        C923   1.410       .  A
C627        C922   1.410       .  A
C627        C628   1.406       .  A
C627        H631   1.082       .  S
C628        C793   1.488       .  S
C628        C925   1.405       .  A
C629        C924   1.405       .  A
C629        H632   1.084       .  S
C633        C880   1.475       .  S
C633        C634   1.405       .  A
C633        C638   1.398       .  A
C634        C635   1.406   1_556  A
C634        H639   1.081       .  S
C635        C803   1.504       .  S
C635        C636   1.411       .  A
C636        C637   1.407       .  A
C636        H640   1.082       .  S
C637        C780   1.475       .  S
C637        C638   1.398   1_554  A
C638        H641   1.084       .  S
C642        C770   1.476       .  S
C642        C643   1.402       .  A
C642        C647   1.404       .  A
C643        H648   1.084       .  S
C644        C850   1.476       .  S
C644        C645   1.406       .  A
C645        H649   1.083       .  S
C646        C813   1.492       .  S
C646        C647   1.406   1_556  A
C647        H650   1.084       .  S
O651       Cr669   2.019       .  S
O651        C659   1.267       .  A
O652       Cr669   1.958       .  S
O652        C653   1.256       .  A
C653        O654   1.267       .  A
C653        C750   1.479       .  S
O654       Cr670   2.024       .  S
O655       Cr670   1.957       .  S
O655        C656   1.254       .  A
C656        O657   1.271       .  A
C656        C760   1.472       .  S
O657       Cr671   2.038       .  S
O658       Cr671   1.952       .  S
O658        C659   1.255       .  A
C659        C743   1.463       .  S
O660       Cr669   1.964       .  S
O660        C668   1.256       .  A
O661       Cr669   2.026       .  S
O661        C662   1.269       .  A
C662        O663   1.259       .  A
C662        C790   1.471       .  S
O663       Cr670   1.966       .  S
O664       Cr670   2.033       .  S
O664        C665   1.269       .  A
C665        O666   1.255       .  A
C665        C783   1.469       .  S
O666       Cr671   1.957       .  S
O667       Cr671   2.031       .  S
O667        C668   1.270       .  A
C668        C773   1.472       .  S
Cr669       O672   1.766       .  S
Cr670       O672   1.771       .  S
Cr671       O672   1.769       .  S
C673        C723   1.482       .  S
C673        C974   1.403       .  A
C674        C675   1.404       .  A
C674        H679   1.084       .  S
C675        C733   1.480       .  S
C675        C676   1.402       .  A
C676        C973   1.408       .  A
C676        H680   1.081       .  S
C677        C710   1.498   1_655  S
C677        C972   1.408   1_545  A
C678        C969   1.403   1_545  A
C678        H681   1.083       .  S
C682        C753   1.476       .  S
C682        C683   1.405       .  A
C682        C687   1.404       .  A
C683        C684   1.398       .  A
C683        H688   1.084       .  S
C684        C720   1.478       .  S
C684        C981   1.397       .  A
C685        C980   1.397   1_545  A
C685        C686   1.406       .  A
C685        H689   1.084       .  S
C686        C863   1.477       .  S
C686        C983   1.405   1_545  A
C687        C982   1.405       .  A
C687        H690   1.084       .  S
C691        C830   1.473       .  S
C691        C692   1.401       .  A
C691        C696   1.400       .  A
C692        H697   1.084       .  S
C693        C740   1.486       .  S
C693        C694   1.410       .  A
C694        H698   1.081       .  S
C695        C713   1.494       .  S
C695        C696   1.403   1_455  A
C696        H699   1.084       .  S
C700        C763   1.481       .  S
C700        C701   1.408       .  A
C700        C705   1.410       .  A
C701        C702   1.402       .  A
C701        H706   1.083       .  S
C702        C730   1.495       .  S
C702        C703   1.399       .  A
C703        C704   1.413       .  A
C703        H707   1.083       .  S
C704        C870   1.504       .  S
C704        C705   1.411       .  A
C705        H708   1.081       .  S
C709        C714   1.401       .  A
C709        H716   1.082       .  S
C710        C711   1.416   1_455  A
C711        C712   1.396       .  A
C711       Br718   1.923       .  S
C712        C713   1.406   1_655  A
C712        H717   1.083       .  S
C714       Br715   1.923       .  S
C719        C720   1.404       .  A
C719        C724   1.402       .  A
C719        H726   1.083       .  S
C720       C1017   1.406       .  A
C721       C1016   1.406   1_545  A
C721        C722   1.398       .  A
C721       Br728   1.919       .  S
C722       C1019   1.406   1_545  A
C722        H727   1.083       .  S
C723       C1018   1.406       .  A
C723        C724   1.410       .  A
C724       Br725   1.918       .  S
C729        C730   1.408       .  A
C729        C734   1.400       .  A
C729        H736   1.083       .  S
C730        C731   1.417       .  A
C731        C732   1.403       .  A
C731       Br738   1.916       .  S
C732        C733   1.400       .  A
C732        H737   1.083       .  S
C733        C734   1.407       .  A
C734       Br735   1.918       .  S
C739        C740   1.406       .  A
C739        C744   1.395       .  A
C739        H746   1.083       .  S
C740        C741   1.416       .  A
C741        C742   1.400       .  A
C741       Br748   1.919       .  S
C742        C743   1.399       .  A
C742        H747   1.084       .  S
C743        C744   1.405       .  A
C744       Br745   1.919       .  S
C749        C750   1.405       .  A
C749        C754   1.393       .  A
C749        H756   1.084       .  S
C750        C751   1.413       .  A
C751        C752   1.405       .  A
C751       Br758   1.918       .  S
C752        C753   1.404       .  A
C752        H757   1.083       .  S
C753        C754   1.406       .  A
C754       Br755   1.921       .  S
C759        C760   1.401       .  A
C759        C764   1.399       .  A
C759        H766   1.079       .  S
C760        C761   1.408       .  A
C761        C762   1.404       .  A
C761       Br768   1.920       .  S
C762        C763   1.405       .  A
C762        H767   1.083       .  S
C763        C764   1.408       .  A
C764       Br765   1.916       .  S
C769        C770   1.401       .  A
C769        C774   1.400       .  A
C769        H776   1.083       .  S
C770        C771   1.408       .  A
C771        C772   1.401       .  A
C771       Br778   1.918   1_554  S
C772        C773   1.403       .  A
C772        H777   1.083       .  S
C773        C774   1.409       .  A
C774       Br775   1.917       .  S
C779        C780   1.401       .  A
C779        C784   1.399       .  A
C779        H786   1.084       .  S
C780        C781   1.410       .  A
C781        C782   1.397       .  A
C781       Br788   1.919       .  S
C782        C783   1.401       .  A
C782        H787   1.084       .  S
C783        C784   1.410       .  A
C784       Br785   1.912       .  S
C789        C790   1.402       .  A
C789        C794   1.401       .  A
C789        H796   1.084       .  S
C790        C791   1.405       .  A
C791        C792   1.399       .  A
C791       Br798   1.916       .  S
C792        C793   1.406       .  A
C792        H797   1.084       .  S
C793        C794   1.413       .  A
C794      Br1091   1.920       .  S
Br795      C1090   1.920   1_545  S
C799        C800   1.409   1_556  A
C799        C804   1.404       .  A
C799        H806   1.082       .  S
C800        C801   1.417       .  A
C801        C802   1.399       .  A
C801       Br808   1.924       .  S
C802        C803   1.407       .  A
C802        H807   1.082       .  S
C803        C804   1.419   1_554  A
C804       Br805   1.925       .  S
C809        C810   1.402       .  A
C809        C814   1.404       .  A
C809        H816   1.083       .  S
C811        C812   1.400       .  A
C811       Br818   1.917       .  S
C812        H817   1.083       .  S
C813        C814   1.416       .  A
C814       Br815   1.921       .  S
C819       C1116   1.408   1_554  A
C819        C824   1.398       .  A
C819        H826   1.082       .  S
C820       C1115   1.408   1_546  A
C820        C821   1.417       .  A
C821        C822   1.406       .  A
C821       Br828   1.923       .  S
C822        C823   1.411       .  A
C822        H827   1.082       .  S
C823       C1120   1.417   1_546  A
C824       C1119   1.417   1_554  A
C824       Br825   1.923       .  S
C829        C830   1.402       .  A
C829        C834   1.397       .  A
C829        H836   1.084       .  S
C830        C831   1.408       .  A
C831        C832   1.398       .  A
C831       Br838   1.919   1_655  S
C832        C833   1.403       .  A
C832        H837   1.083       .  S
C833        C834   1.409       .  A
C834       Br835   1.920       .  S
C839        C840   1.407       .  A
C839        C844   1.399       .  A
C839        H846   1.084       .  S
C840        C841   1.411       .  A
C841        C842   1.404       .  A
C841       Br848   1.914       .  S
C842        C843   1.404       .  A
C842        H847   1.084       .  S
C843        C844   1.407       .  A
C844       Br845   1.919   1_545  S
C849        C850   1.400       .  A
C849        C854   1.396       .  A
C849        H856   1.084       .  S
C850        C851   1.408       .  A
C851        C852   1.403       .  A
C851       Br858   1.917       .  S
C852        C853   1.404       .  A
C852        H857   1.082       .  S
C853        C854   1.411       .  A
C854       Br855   1.922       .  S
C859        C860   1.404       .  A
C859        C864   1.402       .  A
C859        H866   1.081       .  S
C860        C861   1.412       .  A
C861        C862   1.393       .  A
C861       Br868   1.923       .  S
C862        C863   1.401       .  A
C862        H867   1.084   1_545  S
C863        C864   1.410       .  A
C864       Br865   1.918       .  S
C869        C870   1.402       .  A
C869        C874   1.386       .  A
C869        H876   1.083       .  S
C870        C871   1.420       .  A
C871        C872   1.416       .  A
C871       Br878   1.918       .  S
C872        C873   1.409       .  A
C872        H877   1.083       .  S
C873        C874   1.413       .  A
C874       Br875   1.917       .  S
C879        C880   1.400       .  A
C879        C884   1.395       .  A
C879        H886   1.084       .  S
C880        C881   1.411       .  A
C881        C882   1.400       .  A
C881       Br888   1.920       .  S
C882        C883   1.403       .  A
C882        H887   1.084       .  S
C883        C884   1.413       .  A
C884       Br885   1.922       .  S
O889       Cr907   1.991       .  S
O889        C897   1.265       .  A
O890       Cr907   2.002       .  S
O890        C891   1.262       .  A
C891        O892   1.258       .  A
C891       C1129   1.469       .  S
O892       Cr908   1.978       .  S
O893       Cr908   1.994       .  S
O893        C894   1.262       .  A
C894        O895   1.269       .  A
C894       C1169   1.489       .  S
O895       Cr909   2.015       .  S
O896       Cr909   1.994       .  S
O896        C897   1.265       .  A
C897       C1156   1.476       .  S
O898       Cr907   1.988       .  S
O898        C906   1.260       .  A
O899       Cr907   1.998       .  S
O899        C900   1.264       .  A
C900        O901   1.262       .  A
C900       C1149   1.475       .  S
O901       Cr908   1.990       .  S
O902       Cr908   1.989       .  S
O902        C903   1.263       .  A
C903        O904   1.263       .  A
C903       C1179   1.475       .  S
O904       Cr909   1.991       .  S
O905       Cr909   2.013       .  S
O905        C906   1.267       .  A
C906       C1136   1.481       .  S
Cr907       O910   1.772       .  S
Cr908       O910   1.761       .  S
Cr909       O910   1.765       .  S
C911       C1119   1.506       .  S
C912        C913   1.411       .  A
C912        H917   1.078       .  S
C913       C1096   1.504   1_556  S
C913        C914   1.410       .  A
C914        H918   1.083   1_556  S
C915       C1106   1.482       .  S
C916        H919   1.083       .  S
C920       C1139   1.482       .  S
C920        C921   1.408       .  A
C920        C925   1.402   1_556  A
C921        C922   1.409   1_556  A
C921        H926   1.081       .  S
C922       C1116   1.506   1_554  S
C923        C924   1.406       .  A
C923        H927   1.082   1_545  S
C924       C1089   1.488   1_545  S
C925        H928   1.084       .  S
C929       C1176   1.475       .  S
C929        C930   1.405       .  A
C929        C934   1.398       .  A
C930        C931   1.406   1_556  A
C930        H935   1.081       .  S
C931       C1099   1.504       .  S
C931        C932   1.411       .  A
C932        C933   1.407       .  A
C932        H936   1.082       .  S
C933       C1076   1.475       .  S
C933        C934   1.398   1_554  A
C934        H937   1.084       .  S
C938       C1066   1.476       .  S
C938        C939   1.402       .  A
C938        C943   1.404       .  A
C939        H944   1.084       .  S
C940       C1146   1.476       .  S
C940        C941   1.406       .  A
C941        H945   1.083       .  S
C942       C1109   1.492       .  S
C942        C943   1.406   1_556  A
C943        H946   1.084       .  S
O947       Cr965   2.019       .  S
O947        C955   1.267       .  A
O948       Cr965   1.958       .  S
O948        C949   1.256       .  A
C949        O950   1.267       .  A
C949       C1046   1.479       .  S
O950       Cr966   2.024       .  S
O951       Cr966   1.957       .  S
O951        C952   1.254       .  A
C952        O953   1.271       .  A
C952       C1056   1.472       .  S
O953       Cr967   2.038       .  S
O954       Cr967   1.952       .  S
O954        C955   1.255       .  A
C955       C1039   1.463       .  S
O956       Cr965   1.964       .  S
O956        C964   1.256       .  A
O957       Cr965   2.026       .  S
O957        C958   1.269       .  A
C958        O959   1.259       .  A
C958       C1086   1.471       .  S
O959       Cr966   1.966       .  S
O960       Cr966   2.033       .  S
O960        C961   1.269       .  A
C961        O962   1.255       .  A
C961       C1079   1.469       .  S
O962       Cr967   1.957       .  S
O963       Cr967   2.031       .  S
O963        C964   1.270       .  A
C964       C1069   1.472       .  S
Cr965       O968   1.766       .  S
Cr966       O968   1.771       .  S
Cr967       O968   1.769       .  S
C969       C1019   1.482       .  S
C970        C971   1.404       .  A
C970        H975   1.084       .  S
C971       C1029   1.480       .  S
C971        C972   1.402       .  A
C972        H976   1.081       .  S
C973       C1006   1.498   1_655  S
C974        H977   1.083       .  S
C978       C1049   1.476       .  S
C978        C979   1.405       .  A
C978        C983   1.404       .  A
C979        C980   1.398       .  A
C979        H984   1.084       .  S
C980       C1016   1.478       .  S
C981        C982   1.406       .  A
C981        H985   1.084       .  S
C982       C1159   1.477       .  S
C983        H986   1.084       .  S
C987       C1126   1.473       .  S
C987        C988   1.401       .  A
C987        C992   1.400       .  A
C988        H993   1.084       .  S
C989       C1036   1.486       .  S
C989        C990   1.410       .  A
C990        H994   1.081       .  S
C991       C1009   1.494       .  S
C991        C992   1.403   1_455  A
C992        H995   1.084       .  S
C996       C1059   1.481       .  S
C996        C997   1.408       .  A
C996       C1001   1.410       .  A
C997        C998   1.402       .  A
C997       H1002   1.083       .  S
C998       C1026   1.495       .  S
C998        C999   1.399       .  A
C999       C1000   1.413       .  A
C999       H1003   1.083       .  S
C1000      C1166   1.504       .  S
C1000      C1001   1.411       .  A
C1001      H1004   1.081       .  S
C1005      C1010   1.401       .  A
C1005      H1012   1.082       .  S
C1006      C1007   1.416   1_455  A
C1007      C1008   1.396       .  A
C1007     Br1014   1.923       .  S
C1008      C1009   1.406   1_655  A
C1008      H1013   1.083       .  S
C1010     Br1011   1.923       .  S
C1015      C1016   1.404       .  A
C1015      C1020   1.402       .  A
C1015      H1022   1.083       .  S
C1017      C1018   1.398       .  A
C1017     Br1024   1.919       .  S
C1018      H1023   1.083       .  S
C1019      C1020   1.410       .  A
C1020     Br1021   1.918       .  S
C1025      C1026   1.408       .  A
C1025      C1030   1.400       .  A
C1025      H1032   1.083       .  S
C1026      C1027   1.417       .  A
C1027      C1028   1.403       .  A
C1027     Br1034   1.916       .  S
C1028      C1029   1.400       .  A
C1028      H1033   1.083       .  S
C1029      C1030   1.407       .  A
C1030     Br1031   1.918       .  S
C1035      C1036   1.406       .  A
C1035      C1040   1.395       .  A
C1035      H1042   1.083       .  S
C1036      C1037   1.416       .  A
C1037      C1038   1.400       .  A
C1037     Br1044   1.919       .  S
C1038      C1039   1.399       .  A
C1038      H1043   1.084       .  S
C1039      C1040   1.405       .  A
C1040     Br1041   1.919       .  S
C1045      C1046   1.405       .  A
C1045      C1050   1.393       .  A
C1045      H1052   1.084       .  S
C1046      C1047   1.413       .  A
C1047      C1048   1.405       .  A
C1047     Br1054   1.918       .  S
C1048      C1049   1.404       .  A
C1048      H1053   1.083       .  S
C1049      C1050   1.406       .  A
C1050     Br1051   1.921       .  S
C1055      C1056   1.401       .  A
C1055      C1060   1.399       .  A
C1055      H1062   1.079       .  S
C1056      C1057   1.408       .  A
C1057      C1058   1.404       .  A
C1057     Br1064   1.920       .  S
C1058      C1059   1.405       .  A
C1058      H1063   1.083       .  S
C1059      C1060   1.408       .  A
C1060     Br1061   1.916       .  S
C1065      C1066   1.401       .  A
C1065      C1070   1.400       .  A
C1065      H1072   1.083       .  S
C1066      C1067   1.408       .  A
C1067      C1068   1.401       .  A
C1067     Br1074   1.918   1_554  S
C1068      C1069   1.403       .  A
C1068      H1073   1.083       .  S
C1069      C1070   1.409       .  A
C1070     Br1071   1.917       .  S
C1075      C1076   1.401       .  A
C1075      C1080   1.399       .  A
C1075      H1082   1.084       .  S
C1076      C1077   1.410       .  A
C1077      C1078   1.397       .  A
C1077     Br1084   1.919       .  S
C1078      C1079   1.401       .  A
C1078      H1083   1.084       .  S
C1079      C1080   1.410       .  A
C1080     Br1081   1.912       .  S
C1085      C1086   1.402       .  A
C1085      C1090   1.401       .  A
C1085      H1092   1.084       .  S
C1086      C1087   1.405       .  A
C1087      C1088   1.399       .  A
C1087     Br1094   1.916       .  S
C1088      C1089   1.406       .  A
C1088      H1093   1.084       .  S
C1089      C1090   1.413       .  A
C1095      C1096   1.409   1_556  A
C1095      C1100   1.404       .  A
C1095      H1102   1.082       .  S
C1096      C1097   1.417       .  A
C1097      C1098   1.399       .  A
C1097     Br1104   1.924       .  S
C1098      C1099   1.407       .  A
C1098      H1103   1.082       .  S
C1099      C1100   1.419   1_554  A
C1100     Br1101   1.925       .  S
C1105      C1106   1.402       .  A
C1105      C1110   1.404       .  A
C1105      H1112   1.083       .  S
C1107      C1108   1.400       .  A
C1107     Br1114   1.917       .  S
C1108      H1113   1.083       .  S
C1109      C1110   1.416       .  A
C1110     Br1111   1.921       .  S
C1115      C1120   1.398       .  A
C1115      H1122   1.082       .  S
C1116      C1117   1.417       .  A
C1117      C1118   1.406       .  A
C1117     Br1124   1.923       .  S
C1118      C1119   1.411       .  A
C1118      H1123   1.082       .  S
C1120     Br1121   1.923       .  S
C1125      C1126   1.402       .  A
C1125      C1130   1.397       .  A
C1125      H1132   1.084       .  S
C1126      C1127   1.408       .  A
C1127      C1128   1.398       .  A
C1127     Br1134   1.919   1_655  S
C1128      C1129   1.403       .  A
C1128      H1133   1.083       .  S
C1129      C1130   1.409       .  A
C1130     Br1131   1.920       .  S
C1135      C1136   1.407       .  A
C1135      C1140   1.399       .  A
C1135      H1142   1.084       .  S
C1136      C1137   1.411       .  A
C1137      C1138   1.404       .  A
C1137     Br1144   1.914       .  S
C1138      C1139   1.404       .  A
C1138      H1143   1.084       .  S
C1139      C1140   1.407       .  A
C1140     Br1141   1.919       .  S
C1145      C1146   1.400       .  A
C1145      C1150   1.396       .  A
C1145      H1152   1.084       .  S
C1146      C1147   1.408       .  A
C1147      C1148   1.403       .  A
C1147     Br1154   1.917       .  S
C1148      C1149   1.404       .  A
C1148      H1153   1.082       .  S
C1149      C1150   1.411       .  A
C1150     Br1151   1.922       .  S
C1155      C1156   1.404       .  A
C1155      C1160   1.402       .  A
C1155      H1162   1.081       .  S
C1156      C1157   1.412       .  A
C1157      C1158   1.393       .  A
C1157     Br1164   1.923       .  S
C1158      C1159   1.401       .  A
C1158      H1163   1.084       .  S
C1159      C1160   1.410       .  A
C1160     Br1161   1.918       .  S
C1165      C1166   1.402       .  A
C1165      C1170   1.386       .  A
C1165      H1172   1.083       .  S
C1166      C1167   1.420       .  A
C1167      C1168   1.416       .  A
C1167     Br1174   1.918       .  S
C1168      C1169   1.409       .  A
C1168      H1173   1.083       .  S
C1169      C1170   1.413       .  A
C1170     Br1171   1.917       .  S
C1175      C1176   1.400       .  A
C1175      C1180   1.395       .  A
C1175      H1182   1.084       .  S
C1176      C1177   1.411       .  A
C1177      C1178   1.400       .  A
C1177     Br1184   1.920       .  S
C1178      C1179   1.403       .  A
C1178      H1183   1.084       .  S
C1179      C1180   1.413       .  A
C1180     Br1181   1.922       .  S
