geometry optimzed in LAMMPS
_audit_creation_date              2020-12-01 
_audit_creation_method            'lammps2cif' 
_symmetry_space_group_name_H-M    'P1' 
_symmetry_Int_Tables_number       1 
_symmetry_cell_setting            triclinic 
loop_ 
_symmetry_equiv_pos_as_xyz 
  x,y,z 
_cell_length_a                    28.80626814 
_cell_length_b                    23.240120779947002 
_cell_length_c                    33.12787652686422 
_cell_angle_alpha                 79.27073248420666 
_cell_angle_beta                  86.8183074526367 
_cell_angle_gamma                 90.31359181761788 
loop_ 
_atom_site_label 
_atom_site_type_symbol 
_atom_site_fract_x 
_atom_site_fract_y 
_atom_site_fract_z 
_atom_site_charge 
N1          N  0.50472008  0.60705725  0.35461872    -0.01000
C2          C  0.04765067  0.60753841  0.03767701     0.01600
C3          C  0.05925106  0.55094517  0.05468654    -0.21300
C4          C  0.02311701  0.51503808  0.04906636    -0.21500
C5          C  0.48972130  0.54961084  0.36224483     0.01500
H6          H  0.09065843  0.53710217  0.06998733     0.15300
H7          H  0.02072345  0.46842386  0.06063955     0.15300
N8          N  0.43183835  0.47340629  0.34740945    -0.01000
C9          C  0.38556357  0.47205914  0.34285801     0.01600
C10         C  0.36570598  0.52253595  0.35141793    -0.21300
C11         C  0.40168361  0.55686311  0.35997502    -0.21500
C12         C  0.44252917  0.52711435  0.35556443     0.01500
H13         H  0.32899743  0.53191244  0.35362213     0.15300
H14         H  0.39810489  0.59748563  0.37072658     0.15300
O15         O  0.48793194  0.70799301  0.34445171    -0.76000
C16         C  0.50605788  0.84759218  0.22959035     0.85000
O17         O  0.41747029  0.85537936  0.05317073    -0.77100
O18         O  0.35607153  0.91712232  0.25652768    -0.78600
O19         O  0.33767592  0.70302958  0.27669102    -0.78400
O20         O  0.44740935  0.65381423  0.31108421    -0.77000
Zn21       Zn  0.47201491  0.79120825  0.31711279     1.55700
O22         O  0.34182651  0.78395527  0.22748764    -0.78400
Cd23       Cd  0.39202592  0.71162593  0.31215025     1.59700
Cd24       Cd  0.37413264  0.82952750  0.01205098     1.59600
O25         O  0.36713448  0.69284108  0.03871958    -0.78400
O26         O  0.40932456  0.79559835  0.30304288    -1.88900
Cd27       Cd  0.39457379  0.83927100  0.24768288     1.59900
O28         O  0.32580757  0.77181163  0.04158840    -0.78400
O29         O  0.46476145  0.85858186  0.21634097    -0.77000
C30         C  0.46157146  0.86139097  0.05172015     0.85500
C31         C  0.47930637  0.65819960  0.33558606     0.85200
O32         O  0.51059061  0.81910291  0.26569835    -0.76000
C33         C  0.32158630  0.73512240  0.24525837     0.86000
O34         O  0.48664624  0.84451584  0.02359545    -0.76100
C35         C  0.33826568  0.72112827  0.05731287     0.86100
C36         C  0.33297399  0.92871030  0.28852291     0.86400
O37         O  0.33581205  0.89818251  0.99005998    -0.78500
N38         N  0.27748884  0.71625573  0.23216580    -0.01000
C39         C  0.26591305  0.70804228  0.19466126     0.01600
C40         C  0.22255896  0.68161579  0.19652152    -0.21300
C41         C  0.20656327  0.67271721  0.23681232    -0.21500
C42         C  0.24079801  0.69405928  0.25783229     0.01500
H43         H  0.20551893  0.66696977  0.17185516     0.15300
H44         H  0.17273138  0.65514873  0.24910766     0.15300
O45         O  0.05967056  0.82355415  0.05586455    -0.76000
C46         C  0.11084798  0.84406179  0.25947716     0.85000
O47         O  0.11571044  0.65190731  0.05865901    -0.77100
O48         O  0.24619828  0.75697612  0.30395673    -0.78600
O49         O  0.21411141  0.91869914  0.03144091    -0.78400
O50         O  0.10819688  0.86404045  0.09253468    -0.77000
Zn51       Zn  0.09618382  0.78938888  0.01444441     1.55700
O52         O  0.23082716  0.89047635  0.30507848    -0.78400
Cd53       Cd  0.17646316  0.84129437  0.06625797     1.59700
Cd54       Cd  0.17422933  0.70642893  0.04235558     1.59600
O55         O  0.22786593  0.78870845  0.10261686    -0.78400
O56         O  0.15918930  0.79055766  0.02688168    -1.88900
Cd57       Cd  0.19577813  0.81544628  0.30857548     1.59900
O58         O  0.22720166  0.70180544  0.08179416    -0.78400
O59         O  0.15341697  0.82916338  0.25951688    -0.77000
C60         C  0.07986416  0.65837660  0.03724271     0.85500
C61         C  0.06618105  0.85394274  0.08304471     0.85200
O62         O  0.08571224  0.83764769  0.29270643    -0.76000
C63         C  0.23437973  0.92776151  0.99500089     0.86000
O64         O  0.07237213  0.70746686  0.01466092    -0.76100
C65         C  0.24511117  0.73748569  0.10183420     0.86100
C66         C  0.23065880  0.70882595  0.29793068     0.86400
O67         O  0.19939665  0.68066314  0.32235337    -0.78500
N68         N  0.54898701  0.87106069  0.20577785    -0.01000
C69         C  0.55464365  0.90085503  0.16611417     0.01600
C70         C  0.09860117  0.92460963  0.15688982    -0.21300
C71         C  0.12316937  0.90592717  0.19054737    -0.21500
C72         C  0.09290633  0.87316731  0.21987826     0.01500
H73         H  0.11190369  0.95117391  0.12816908     0.15300
H74         H  0.15964041  0.91502487  0.19334839     0.15300
N75         N  0.28868148  0.72015683  0.12039715    -0.01000
C76         C  0.29881988  0.70823727  0.16038553     0.01600
C77         C  0.34144245  0.68156422  0.16534857    -0.21300
C78         C  0.35860846  0.67667615  0.12697713    -0.21500
C79         C  0.32576597  0.70059699  0.10030826     0.01500
H80         H  0.35744195  0.66481287  0.19387387     0.15300
H81         H  0.39251156  0.66061648  0.11913810     0.15300
N82         N  0.02499095  0.88020191  0.10025327    -0.01000
C83         C  0.02076808  0.90468907  0.13466862     0.01600
C84         C  0.47892692  0.93180736  0.13817553    -0.21300
C85         C  0.45419953  0.92119543  0.10642044    -0.21500
C86         C  0.48214970  0.88883804  0.08395606     0.01500
H87         H  0.46691915  0.95503014  0.16214357     0.15300
H88         H  0.41857833  0.93376038  0.10120022     0.15300
O89         O  0.19609040  0.30502163  0.05726142    -0.76000
C90         C  0.21948701  0.35731461  0.25043067     0.85000
O91         O  0.25980893  0.14032269  0.33605902    -0.77100
O92         O  0.35286364  0.29194183  0.25000629    -0.78600
O93         O  0.34404752  0.38825209  0.04003266    -0.78400
O94         O  0.24887481  0.33567107  0.09377724    -0.77000
Zn95       Zn  0.22403990  0.28079216  0.33760779     1.55700
O96         O  0.35067041  0.40775031  0.30424904    -0.78400
Cd97       Cd  0.30324251  0.31454750  0.05568769     1.59700
Cd98       Cd  0.31316692  0.20199244  0.33687312     1.59600
O99         O  0.33691718  0.25188990  0.09430143    -0.78400
O100        O  0.28895630  0.28350490  0.33710455    -1.88900
Cd101      Cd  0.31344336  0.33892977  0.28596711     1.59900
O102        O  0.34969120  0.18206600  0.05694296    -0.78400
O103        O  0.26262300  0.36994089  0.24479979    -0.77000
C104        C  0.21687169  0.15097763  0.33155890     0.85500
C105        C  0.20669978  0.32435337  0.08925175     0.85200
O106        O  0.20391204  0.32653502  0.28424773    -0.76000
C107        C  0.35884025  0.41928760  0.33962914     0.86000
O108        O  0.20205416  0.20143057  0.33334341    -0.76100
C109        C  0.35484267  0.20378923  0.08940400     0.86100
C110        C  0.36482373  0.23886560  0.25091492     0.86400
O111        O  0.35421337  0.19874157  0.28215790    -0.78500
N112        N  0.18736011  0.38116446  0.21968077    -0.01000
C113        C  0.19169630  0.38218637  0.17819496     0.01600
C114        C  0.16610347  0.42966787  0.15982379    -0.21300
C115        C  0.13803131  0.44688756  0.19049316    -0.21500
C116        C  0.14952662  0.41278045  0.22723896     0.01500
H117        H  0.15843817  0.43960784  0.12765132     0.15300
H118        H  0.10685802  0.47238837  0.18534821     0.15300
O119        O  0.12066227  0.20899822  0.32627789    -0.76000
C120        C  0.11290989  0.38780361  0.25929260     0.85000
O121        O  0.05413159  0.30992902  0.09559349    -0.77100
O122        O  0.97724803  0.41897543  0.30912205    -0.78600
O123        O  0.47036867  0.22419636  0.27410549    -0.78400
O124        O  0.06191849  0.15186854  0.31923036    -0.77000
Zn125      Zn  0.09550679  0.28712881  0.33398604     1.55700
O126        O  0.97760698  0.32051510  0.24805785    -0.78400
Cd127      Cd  0.00803491  0.20952153  0.32606465     1.59700
Cd128      Cd  0.00390239  0.30772920  0.05332612     1.59600
O129        O  0.46782771  0.16669198  0.04297734    -0.78400
O130        O  0.03039432  0.28915495  0.33380162    -1.88900
Cd131      Cd  0.01494843  0.35516420  0.28817240     1.59900
O132        O  0.46330165  0.23697951  0.08061509    -0.78400
O133        O  0.07049355  0.39821329  0.25326280    -0.77000
C134        C  0.09760806  0.30340336  0.08967489     0.85500
C135        C  0.10540291  0.15957727  0.32171181     0.85200
O136        O  0.12392640  0.34950789  0.28954938    -0.76000
C137        C  0.46288837  0.26926055  0.24682768     0.86000
O138        O  0.11456336  0.29667151  0.05495227    -0.76100
C139        C  0.45390545  0.18533174  0.07525094     0.86100
C140        C  0.46133414  0.42469931  0.34468969     0.86400
O141        O  0.96745659  0.38701868  0.04336470    -0.78500
N142        N  0.39640181  0.22727918  0.21794739    -0.01000
C143        C  0.38278682  0.22867299  0.17874159     0.01600
C144        C  0.40495704  0.27680646  0.15315105    -0.21300
C145        C  0.43934138  0.29587249  0.17438973    -0.21500
C146        C  0.43485290  0.26193886  0.21290316     0.01500
H147        H  0.40420739  0.28938015  0.12020429     0.15300
H148        H  0.96573701  0.32875065  0.16249700     0.15300
N149        N  0.17156158  0.32719962  0.12225004    -0.01000
C150        C  0.18180852  0.32653376  0.16244497     0.01600
C151        C  0.14978573  0.28899339  0.18776897    -0.21300
C152        C  0.11508320  0.27648034  0.16395376    -0.21500
C153        C  0.12859665  0.30140706  0.12412789     0.01500
H154        H  0.14629464  0.28157437  0.22105300     0.15300
H155        H  0.08239319  0.25422323  0.17485429     0.15300
N156        N  0.38457804  0.17391509  0.11971395    -0.01000
C157        C  0.38510464  0.17346331  0.16098844     0.01600
C158        C  0.41829713  0.13296717  0.17613421    -0.21300
C159        C  0.44359841  0.11920159  0.14263740    -0.21500
C160        C  0.42397014  0.14915711  0.10796624     0.01500
H161        H  0.43090882  0.12610773  0.20682818     0.15300
H162        H  0.97801150  0.10088505  0.14418144     0.15300
N163        N  0.26154998  0.98022784  0.97813893    -0.01000
C164        C  0.30160642  0.98043485  0.95369166     0.01600
C165        C  0.31128746  0.03491017  0.26486637    -0.21300
C166        C  0.27557698  0.06987087  0.27498492    -0.21500
C167        C  0.24544797  0.03589388  0.97021797     0.01500
H168        H  0.34064647  0.04829245  0.24326709     0.15300
H169        H  0.27064953  0.11508746  0.26077274     0.15300
N170        N  0.18503532  0.10659807  0.32275053    -0.01000
C171        C  0.13759184  0.10947923  0.31927103     0.01600
C172        C  0.12105855  0.05731767  0.31069368    -0.21300
C173        C  0.15856909  0.02214551  0.30737020    -0.21500
C174        C  0.19745793  0.05312454  0.31438292     0.01500
H175        H  0.08552605  0.04685422  0.30534735     0.15300
H176        H  0.15760911  0.98031999  0.29754150     0.15300
N177        N  0.50494669  0.60688403  0.68797934    -0.01000
C178        C  0.04760647  0.60694592  0.37104164     0.01600
C179        C  0.05921999  0.55035810  0.38804957    -0.21300
C180        C  0.02311296  0.51442780  0.38240580    -0.21500
C181        C  0.48998815  0.54942745  0.69555165     0.01500
H182        H  0.09061398  0.53653315  0.40337740     0.15300
H183        H  0.02073415  0.46781621  0.39398492     0.15300
N184        N  0.43208912  0.47333075  0.68056165    -0.01000
C185        C  0.38579173  0.47196535  0.67611896     0.01600
C186        C  0.36595010  0.52235206  0.68486564    -0.21300
C187        C  0.40194790  0.55663838  0.69343430    -0.21500
C188        C  0.44278982  0.52694866  0.68886868     0.01500
H189        H  0.32924086  0.53167750  0.68719524     0.15300
H190        H  0.39839457  0.59718341  0.70430281     0.15300
O191        O  0.48807563  0.70780059  0.67781989    -0.76000
C192        C  0.50606327  0.84748650  0.56295961     0.85000
O193        O  0.41737363  0.85414716  0.38681627    -0.77100
O194        O  0.35608982  0.91698644  0.58992874    -0.78600
O195        O  0.33787158  0.70264763  0.61004815    -0.78400
O196        O  0.44762146  0.65356985  0.64444217    -0.77000
Zn197      Zn  0.47210025  0.79096771  0.65040678     1.55700
O198        O  0.34181465  0.78371768  0.56095351    -0.78400
Cd199      Cd  0.39220118  0.71132397  0.64550425     1.59700
Cd200      Cd  0.37405270  0.82849418  0.34559767     1.59600
O201        O  0.36705690  0.69187888  0.37215885    -0.78400
O202        O  0.40940981  0.79534140  0.63635384    -1.88900
Cd203      Cd  0.39457084  0.83912665  0.58107121     1.59900
O204        O  0.32564152  0.77076891  0.37497509    -0.78400
O205        O  0.46474836  0.85855948  0.54977645    -0.77000
C206        C  0.46146572  0.86031549  0.38530349     0.85500
C207        C  0.47950225  0.65799683  0.66894933     0.85200
O208        O  0.51066123  0.81880492  0.59899963    -0.76000
C209        C  0.32168430  0.73478426  0.57868055     0.86000
O210        O  0.48653642  0.84359296  0.35711079    -0.76100
C211        C  0.33817841  0.72014653  0.39075162     0.86100
C212        C  0.33304145  0.92856486  0.62194641     0.86400
O213        O  0.33582736  0.89727317  0.32363673    -0.78500
N214        N  0.27759471  0.71583866  0.56562095    -0.01000
C215        C  0.26603820  0.70746449  0.52814368     0.01600
C216        C  0.22271649  0.68094080  0.53005218    -0.21300
C217        C  0.20672540  0.67212834  0.57034007    -0.21500
C218        C  0.24092482  0.69362153  0.59131734     0.01500
H219        H  0.20569770  0.66617365  0.50542054     0.15300
H220        H  0.17291711  0.65450612  0.58266005     0.15300
O221        O  0.05980896  0.82314337  0.38930571    -0.76000
C222        C  0.11098800  0.84365330  0.59284762     0.85000
O223        O  0.11569589  0.65126097  0.39201402    -0.77100
O224        O  0.24629990  0.75660437  0.63740806    -0.78600
O225        O  0.21425456  0.91785887  0.36505475    -0.78400
O226        O  0.10833741  0.86338624  0.42610412    -0.77000
Zn227      Zn  0.09618865  0.78885216  0.34791627     1.55700
O228        O  0.23100394  0.89016916  0.63850771    -0.78400
Cd229      Cd  0.17654945  0.84051126  0.39980968     1.59700
Cd230      Cd  0.17422412  0.70576097  0.37574183     1.59600
O231        O  0.22788788  0.78782308  0.43616066    -0.78400
O232        O  0.15920212  0.78990855  0.36035066    -1.88900
Cd233      Cd  0.19590550  0.81513115  0.64199268     1.59900
O234        O  0.22724101  0.70103307  0.41517906    -0.78400
O235        O  0.15358164  0.82885884  0.59290897    -0.77000
C236        C  0.07980183  0.65780039  0.37065883     0.85500
C237        C  0.06632586  0.85343006  0.41653808     0.85200
O238        O  0.08581432  0.83714946  0.62605516    -0.76000
C239        C  0.23446145  0.92696645  0.32859381     0.86000
O240        O  0.07225819  0.70695929  0.34818367    -0.76100
C241        C  0.24513260  0.73662300  0.43530605     0.86100
C242        C  0.23075176  0.70844860  0.63139976     0.86400
O243        O  0.19945829  0.68032758  0.65581784    -0.78500
N244        N  0.54894570  0.87109786  0.53915605    -0.01000
C245        C  0.55456000  0.90072422  0.49945480     0.01600
C246        C  0.09874710  0.92429733  0.49029639    -0.21300
C247        C  0.12331280  0.90557234  0.52394669    -0.21500
C248        C  0.09305015  0.87276436  0.55325495     0.01500
H249        H  0.11205381  0.95086130  0.46157686     0.15300
H250        H  0.15978235  0.91466685  0.52675563     0.15300
N251        N  0.28869393  0.71925017  0.45387494    -0.01000
C252        C  0.29892736  0.70763983  0.49384712     0.01600
C253        C  0.34162979  0.68116476  0.49880052    -0.21300
C254        C  0.35874347  0.67610968  0.46044075    -0.21500
C255        C  0.32579210  0.69973194  0.43378401     0.01500
H256        H  0.35772636  0.66465012  0.52731607     0.15300
H257        H  0.39268410  0.66016368  0.45259125     0.15300
N258        N  0.02514631  0.87973532  0.43371267    -0.01000
C259        C  0.02093925  0.90435525  0.46806377     0.01600
C260        C  0.47881933  0.93135278  0.47147025    -0.21300
C261        C  0.45406801  0.92042013  0.43981989    -0.21500
C262        C  0.48202140  0.88788975  0.41749011     0.01500
H263        H  0.46682447  0.95479734  0.49531857     0.15300
H264        H  0.41844471  0.93294401  0.43455991     0.15300
O265        O  0.19620557  0.30416270  0.39072682    -0.76000
C266        C  0.21971637  0.35725234  0.58367632     0.85000
O267        O  0.25978980  0.14016161  0.66976151    -0.77100
O268        O  0.35300586  0.29153019  0.58346389    -0.78600
O269        O  0.34425601  0.38709433  0.37331714    -0.78400
O270        O  0.24902654  0.33513250  0.42705174    -0.77000
Zn271      Zn  0.22410038  0.28084765  0.67089085     1.55700
O272        O  0.35098145  0.40755577  0.63751894    -0.78400
Cd273      Cd  0.30334273  0.31358582  0.38906891     1.59700
Cd274      Cd  0.31313835  0.20191727  0.67039533     1.59600
O275        O  0.33686989  0.25096660  0.42783489    -0.78400
O276        O  0.28898568  0.28351294  0.67043370    -1.88900
Cd277      Cd  0.31363515  0.33877294  0.61927705     1.59900
O278        O  0.34968732  0.18105508  0.39055987    -0.78400
O279        O  0.26287256  0.36977174  0.57801580    -0.77000
C280        C  0.21690722  0.15090007  0.66500454     0.85500
C281        C  0.20684629  0.32372626  0.42261296     0.85200
O282        O  0.20411998  0.32661418  0.61753068    -0.76000
C283        C  0.35903985  0.41920207  0.67289383     0.86000
O284        O  0.20213959  0.20145815  0.66654013    -0.76100
C285        C  0.35476756  0.20281780  0.42302361     0.86100
C286        C  0.36483327  0.23838800  0.58446092     0.86400
O287        O  0.35411182  0.19836751  0.61573079    -0.78500
N288        N  0.18758466  0.38103571  0.55291357    -0.01000
C289        C  0.19189396  0.38195011  0.51143791     0.01600
C290        C  0.16625547  0.42936823  0.49303671    -0.21300
C291        C  0.13817622  0.44661486  0.52369310    -0.21500
C292        C  0.14970011  0.41258089  0.56045646     0.01500
H293        H  0.15856864  0.43922855  0.46086804     0.15300
H294        H  0.10697782  0.47206256  0.51853419     0.15300
O295        O  0.12070269  0.20880237  0.65973688    -0.76000
C296        C  0.11308348  0.38760641  0.59253431     0.85000
O297        O  0.05424820  0.30933387  0.42905738    -0.77100
O298        O  0.97728629  0.41882520  0.64243875    -0.78600
O299        O  0.47043921  0.22355508  0.60776072    -0.78400
O300        O  0.06197196  0.15174731  0.65255596    -0.77000
Zn301      Zn  0.09559552  0.28696908  0.66729291     1.55700
O302        O  0.97783612  0.32039863  0.58127858    -0.78400
Cd303      Cd  0.00810672  0.20944274  0.65941518     1.59700
Cd304      Cd  0.00393754  0.30702939  0.38685119     1.59600
O305        O  0.46756353  0.16560216  0.37683894    -0.78400
O306        O  0.03049028  0.28907889  0.66711629    -1.88900
Cd307      Cd  0.01509658  0.35509110  0.62145794     1.59900
O308        O  0.46341608  0.23573786  0.41462504    -0.78400
O309        O  0.07067694  0.39825465  0.58661217    -0.77000
C310        C  0.09772769  0.30282540  0.42311927     0.85500
C311        C  0.10544897  0.15941543  0.65511588     0.85200
O312        O  0.12405174  0.34913502  0.62270988    -0.76000
C313        C  0.46294312  0.26851626  0.58039174     0.86000
O314        O  0.11464849  0.29599732  0.38840815    -0.76100
C315        C  0.45383086  0.18417142  0.40918622     0.86100
C316        C  0.46154472  0.42458257  0.67788128     0.86400
O317        O  0.96744145  0.38631108  0.37686972    -0.78500
N318        N  0.39637254  0.22657474  0.55154846    -0.01000
C319        C  0.38272516  0.22790341  0.51235911     0.01600
C320        C  0.40502551  0.27587175  0.48670402    -0.21300
C321        C  0.43949153  0.29484815  0.50790495    -0.21500
C322        C  0.43492805  0.26105626  0.54646754     0.01500
H323        H  0.40422998  0.28840078  0.45375865     0.15300
H324        H  0.96583551  0.32843755  0.49571320     0.15300
N325        N  0.17173384  0.32676545  0.45559419    -0.01000
C326        C  0.18202391  0.32622079  0.49576592     0.01600
C327        C  0.15003444  0.28870765  0.52115032    -0.21300
C328        C  0.11529812  0.27612260  0.49739210    -0.21500
C329        C  0.12876038  0.30096320  0.45753962     0.01500
H330        H  0.14658633  0.28135519  0.55443353     0.15300
H331        H  0.08262431  0.25386307  0.50834537     0.15300
N332        N  0.38437840  0.17292844  0.45344800    -0.01000
C333        C  0.38481664  0.17258725  0.49471806     0.01600
C334        C  0.41786552  0.13196249  0.50999015    -0.21300
C335        C  0.44325396  0.11809446  0.47657557    -0.21500
C336        C  0.42377611  0.14806898  0.44183324     0.01500
H337        H  0.43037742  0.12510414  0.54072002     0.15300
H338        H  0.97786396  0.10028270  0.47781504     0.15300
N339        N  0.26162730  0.97942101  0.31175163    -0.01000
C340        C  0.30167710  0.97961624  0.28729816     0.01600
C341        C  0.31143728  0.03483323  0.59846540    -0.21300
C342        C  0.27573488  0.06978110  0.60862179    -0.21500
C343        C  0.24544864  0.03504213  0.30374736     0.01500
H344        H  0.34084928  0.04827357  0.57693661     0.15300
H345        H  0.27086751  0.11504831  0.59449793     0.15300
N346        N  0.18509135  0.10648016  0.65620639    -0.01000
C347        C  0.13764896  0.10932918  0.65270576     0.01600
C348        C  0.12113459  0.05714587  0.64415554    -0.21300
C349        C  0.15865372  0.02197717  0.64087646    -0.21500
C350        C  0.19753269  0.05298111  0.64788543     0.01500
H351        H  0.08560889  0.04666086  0.63880253     0.15300
H352        H  0.15770377  0.98013644  0.63107013     0.15300
N353        N  0.50501158  0.60804680  0.02102531    -0.01000
C354        C  0.04760728  0.60662924  0.70472366     0.01600
C355        C  0.05912409  0.55005784  0.72187736    -0.21300
C356        C  0.02300774  0.51414191  0.71621989    -0.21500
C357        C  0.49003413  0.55060051  0.02857824     0.01500
H358        H  0.09046526  0.53623511  0.73729297     0.15300
H359        H  0.02055125  0.46754835  0.72786567     0.15300
N360        N  0.43198267  0.47459997  0.01368916    -0.01000
C361        C  0.38561136  0.47313041  0.00962845     0.01600
C362        C  0.36585020  0.52344795  0.01859498    -0.21300
C363        C  0.40195273  0.55777910  0.02693057    -0.21500
C364        C  0.44276833  0.52817786  0.02202483     0.01500
H365        H  0.32914704  0.53270791  0.02119621     0.15300
H366        H  0.39850898  0.59828369  0.03789457     0.15300
O367        O  0.48821645  0.70898376  0.01086335    -0.76000
C368        C  0.50604142  0.84856166  0.89607172     0.85000
O369        O  0.41740278  0.85363212  0.72017239    -0.77100
O370        O  0.35600713  0.91793230  0.92294520    -0.78600
O371        O  0.33788745  0.70373382  0.94331080    -0.78400
O372        O  0.44752511  0.65471303  0.97769124    -0.77000
Zn373      Zn  0.47213320  0.79216817  0.98358842     1.55700
O374        O  0.34189217  0.78459798  0.89405734    -0.78400
Cd375      Cd  0.39217830  0.71253051  0.97874529     1.59700
Cd376      Cd  0.37408809  0.82817223  0.67889448     1.59600
O377        O  0.36723491  0.69164500  0.70554064    -0.78400
O378        O  0.40941158  0.79652113  0.96955464    -1.88900
Cd379      Cd  0.39456976  0.84009076  0.91418668     1.59900
O380        O  0.32558408  0.77040605  0.70807513    -0.78400
O381        O  0.46472596  0.85946625  0.88284602    -0.77000
C382        C  0.46147919  0.86004060  0.71857020     0.85500
C383        C  0.47953640  0.65916462  0.00206469     0.85200
O384        O  0.51063771  0.82013372  0.93218193    -0.76000
C385        C  0.32174503  0.73572137  0.91186672     0.86000
O386        O  0.48657217  0.84349278  0.69031672    -0.76100
C387        C  0.33824450  0.71991703  0.72402391     0.86100
C388        C  0.33291619  0.92955144  0.95493171     0.86400
O389        O  0.33592752  0.89708948  0.65704163    -0.78500
N390        N  0.27768489  0.71667874  0.89882077    -0.01000
C391        C  0.26618190  0.70805897  0.86138589     0.01600
C392        C  0.22288127  0.68146170  0.86333906    -0.21300
C393        C  0.20685656  0.67284038  0.90360868    -0.21500
C394        C  0.24101311  0.69451207  0.92453348     0.01500
H395        H  0.20590286  0.66650341  0.83876119     0.15300
H396        H  0.17306135  0.65519652  0.91594950     0.15300
O397        O  0.05983204  0.82300530  0.72258422    -0.76000
C398        C  0.11092006  0.84457650  0.92600918     0.85000
O399        O  0.11575184  0.65097327  0.72558631    -0.77100
O400        O  0.24628876  0.75765505  0.97053145    -0.78600
O401        O  0.21417079  0.91769411  0.69839121    -0.78400
O402        O  0.10831929  0.86322925  0.75942405    -0.77000
Zn403      Zn  0.09624017  0.78850713  0.68129890     1.55700
O404        O  0.23082922  0.89118433  0.97153798    -0.78400
Cd405      Cd  0.17651536  0.84033104  0.73314457     1.59700
Cd406      Cd  0.17426433  0.70548888  0.70919142     1.59600
O407        O  0.22791046  0.78778867  0.76946667    -0.78400
O408        O  0.15923699  0.78962679  0.69373406    -1.88900
Cd409      Cd  0.19582090  0.81607788  0.97512660     1.59900
O410        O  0.22733826  0.70094887  0.74854729    -0.78400
O411        O  0.15348299  0.82966105  0.92607166    -0.77000
C412        C  0.07984827  0.65746459  0.70424339     0.85500
C413        C  0.06632288  0.85332519  0.74980479     0.85200
O414        O  0.08576215  0.83819824  0.95922680    -0.76000
C415        C  0.23450426  0.92674311  0.66198351     0.86000
O416        O  0.07232108  0.70657243  0.68169594    -0.76100
C417        C  0.24522245  0.73662841  0.76860763     0.86100
C418        C  0.23080631  0.70943623  0.96458046     0.86400
O419        O  0.19954085  0.68129049  0.98901837    -0.78500
N420        N  0.54891964  0.87205579  0.87221114    -0.01000
C421        C  0.55451532  0.90148133  0.83246011     0.01600
C422        C  0.09878334  0.92476343  0.82330172    -0.21300
C423        C  0.12330725  0.90626473  0.85701751    -0.21500
C424        C  0.09301090  0.87363002  0.88638734     0.01500
H425        H  0.11212872  0.95112401  0.79451882     0.15300
H426        H  0.15978117  0.91534474  0.85981577     0.15300
N427        N  0.28881293  0.71937757  0.78715236    -0.01000
C428        C  0.29909037  0.70810488  0.82711473     0.01600
C429        C  0.34182798  0.68173995  0.83212096    -0.21300
C430        C  0.35891223  0.67641527  0.79380039    -0.21500
C431        C  0.32591110  0.69977316  0.76710761     0.01500
H432        H  0.35796659  0.66546006  0.86065376     0.15300
H433        H  0.39286441  0.66046899  0.78598980     0.15300
N434        N  0.02514430  0.87973229  0.76690013    -0.01000
C435        C  0.02096886  0.90465806  0.80111641     0.01600
C436        C  0.47875568  0.93179084  0.80439879    -0.21300
C437        C  0.45399804  0.92050973  0.77285181    -0.21500
C438        C  0.48197832  0.88780974  0.75067574     0.01500
H439        H  0.46674946  0.95545204  0.82812364     0.15300
H440        H  0.41836847  0.93295726  0.76754427     0.15300
O441        O  0.19622913  0.30433639  0.72399707    -0.76000
C442        C  0.21960665  0.35812459  0.91687198     0.85000
O443        O  0.25977905  0.14118213  0.00264886    -0.77100
O444        O  0.35293154  0.29303325  0.91669696    -0.78600
O445        O  0.34428354  0.38715179  0.70658136    -0.78400
O446        O  0.24899855  0.33555297  0.76024738    -0.77000
Zn447      Zn  0.22400854  0.28173944  0.00411170     1.55700
O448        O  0.35080229  0.40877395  0.97097263    -0.78400
Cd449      Cd  0.30325484  0.31375746  0.72234034     1.59700
Cd450      Cd  0.31303897  0.20299562  0.00339421     1.59600
O451        O  0.33661769  0.25116029  0.76119247    -0.78400
O452        O  0.28890095  0.28453815  0.00368169    -1.88900
Cd453      Cd  0.31348895  0.34003584  0.95260664     1.59900
O454        O  0.34977790  0.18122807  0.72400367    -0.78400
O455        O  0.26271999  0.37095051  0.91131939    -0.77000
C456        C  0.21686791  0.15185944  0.99804820     0.85500
C457        C  0.20683704  0.32405680  0.75583635     0.85200
O458        O  0.20401970  0.32734657  0.95068172    -0.76000
C459        C  0.35882307  0.42037614  0.00637049     0.86000
O460        O  0.20207264  0.20234683  0.99976473    -0.76100
C461        C  0.35470837  0.20310153  0.75643781     0.86100
C462        C  0.36474666  0.23992321  0.91752477     0.86400
O463        O  0.35399645  0.19973620  0.94868113    -0.78500
N464        N  0.18748422  0.38175648  0.88605874    -0.01000
C465        C  0.19182050  0.38255847  0.84459058     0.01600
C466        C  0.16618370  0.42993384  0.82612232    -0.21300
C467        C  0.13810504  0.44729127  0.85673705    -0.21500
C468        C  0.14962192  0.41336830  0.89354393     0.01500
H469        H  0.15850861  0.43970454  0.79394826     0.15300
H470        H  0.10691748  0.47274887  0.85153769     0.15300
O471        O  0.12067435  0.20981539  0.99279797    -0.76000
C472        C  0.11301675  0.38850885  0.92566823     0.85000
O473        O  0.05430131  0.30936876  0.76234835    -0.77100
O474        O  0.97726340  0.41974336  0.97561528    -0.78600
O475        O  0.47042992  0.22553537  0.94028744    -0.78400
O476        O  0.06196739  0.15274739  0.98558570    -0.77000
Zn477      Zn  0.09553665  0.28793383  0.00046937     1.55700
O478        O  0.97774988  0.32128524  0.91440942    -0.78400
Cd479      Cd  0.00812712  0.21034513  0.99252091     1.59700
Cd480      Cd  0.00401662  0.30698299  0.72016347     1.59600
O481        O  0.46768645  0.16549069  0.71060291    -0.78400
O482        O  0.03043774  0.28997534  0.00025446    -1.88900
Cd483      Cd  0.01501994  0.35597700  0.95459017     1.59900
O484        O  0.46340100  0.23597252  0.74808657    -0.78400
O485        O  0.07060216  0.39900705  0.91968026    -0.77000
C486        C  0.09778000  0.30290123  0.75639943     0.85500
C487        C  0.10543423  0.16043858  0.98813592     0.85200
O488        O  0.12401789  0.35022401  0.95594595    -0.76000
C489        C  0.46284651  0.27058114  0.91302956     0.86000
O490        O  0.11469855  0.29601069  0.72169836    -0.76100
C491        C  0.45383761  0.18432284  0.74281683     0.86100
C492        C  0.46144089  0.42590645  0.01084733     0.86400
O493        O  0.96754105  0.38624762  0.71020089    -0.78500
N494        N  0.39627050  0.22831523  0.88454215    -0.01000
C495        C  0.38255824  0.22917883  0.84544157     0.01600
C496        C  0.40468895  0.27708893  0.81955214    -0.21300
C497        C  0.43905308  0.29662076  0.84060278    -0.21500
C498        C  0.43463341  0.26312521  0.87925948     0.01500
H499        H  0.40391350  0.28922970  0.78658394     0.15300
H500        H  0.96589996  0.32898408  0.82874573     0.15300
N501        N  0.17172337  0.32716381  0.78880681    -0.01000
C502        C  0.18200834  0.32675987  0.82897039     0.01600
C503        C  0.15008386  0.28920941  0.85440048    -0.21300
C504        C  0.11539279  0.27640917  0.83067061    -0.21500
C505        C  0.12881392  0.30119399  0.79079853     0.01500
H506        H  0.14663260  0.28195219  0.88768163     0.15300
H507        H  0.08276133  0.25406027  0.84165363     0.15300
N508        N  0.38429548  0.17342438  0.78695314    -0.01000
C509        C  0.38472025  0.17357701  0.82815225     0.01600
C510        C  0.41775462  0.13308978  0.84365821    -0.21300
C511        C  0.44314808  0.11880129  0.81038824    -0.21500
C512        C  0.42371048  0.14843190  0.77551189     0.01500
H513        H  0.43025020  0.12659417  0.87438557     0.15300
H514        H  0.97794424  0.10047831  0.81123615     0.15300
N515        N  0.26166052  0.97922446  0.64516666    -0.01000
C516        C  0.30175267  0.97947466  0.62076194     0.01600
C517        C  0.31129657  0.03576722  0.93135647    -0.21300
C518        C  0.27562904  0.07075046  0.94152153    -0.21500
C519        C  0.24553106  0.03488209  0.63727364     0.01500
H520        H  0.34069689  0.04916925  0.90980671     0.15300
H521        H  0.27076340  0.11600835  0.92737693     0.15300
N522        N  0.18504879  0.10747849  0.98919995    -0.01000
C523        C  0.13761920  0.11037501  0.98565933     0.01600
C524        C  0.12109357  0.05826466  0.97699471    -0.21300
C525        C  0.15859634  0.02308599  0.97369589    -0.21500
C526        C  0.19746775  0.05401235  0.98080967     0.01500
H527        H  0.08557326  0.04784025  0.97158243     0.15300
H528        H  0.15765194  0.98129409  0.96381685     0.15300
N529        N  0.00486283  0.60715311  0.35453485    -0.01000
C530        C  0.54774514  0.60780106  0.03755145     0.01600
C531        C  0.55932658  0.55119077  0.05454219    -0.21300
C532        C  0.52321535  0.51528903  0.04883964    -0.21500
C533        C  0.98990401  0.54969633  0.36215227     0.01500
H534        H  0.59070636  0.53733083  0.06988285     0.15300
H535        H  0.52080795  0.46866485  0.06038035     0.15300
N536        N  0.93190994  0.47356922  0.34738396    -0.01000
C537        C  0.88558584  0.47217058  0.34308470     0.01600
C538        C  0.86578382  0.52255374  0.35188558    -0.21300
C539        C  0.90183622  0.55687330  0.36032410    -0.21500
C540        C  0.94265951  0.52720645  0.35562607     0.01500
H541        H  0.82908021  0.53187343  0.35430704     0.15300
H542        H  0.89834942  0.59742796  0.37119309     0.15300
O543        O  0.98805313  0.70807301  0.34434339    -0.76000
C544        C  0.00602867  0.84786650  0.22959001     0.85000
O545        O  0.91733045  0.85501532  0.05315896    -0.77100
O546        O  0.85610301  0.91736419  0.25670939    -0.78600
O547        O  0.83773433  0.70320514  0.27663569    -0.78400
O548        O  0.94740566  0.65380621  0.31112849    -0.77000
Zn549      Zn  0.97207316  0.79126838  0.31706828     1.55700
O550        O  0.84179794  0.78434540  0.22760535    -0.78400
Cd551      Cd  0.89204587  0.71166772  0.31214072     1.59700
Cd552      Cd  0.87404326  0.82946888  0.01187417     1.59600
O553        O  0.86717901  0.69293107  0.03876072    -0.78400
O554        O  0.90935437  0.79565863  0.30308565    -1.88900
Cd555      Cd  0.89457639  0.83956085  0.24779837     1.59900
O556        O  0.82556106  0.77176074  0.04120126    -0.78400
O557        O  0.96471255  0.85896715  0.21642568    -0.77000
C558        C  0.96143200  0.86104744  0.05173797     0.85500
C559        C  0.97938551  0.65825530  0.33554103     0.85200
O560        O  0.01062300  0.81921426  0.26564144    -0.76000
C561        C  0.82159501  0.73545040  0.24529343     0.86000
O562        O  0.98654041  0.84428594  0.02358579    -0.76100
C563        C  0.83822319  0.72129321  0.05720727     0.86100
C564        C  0.83297759  0.92883737  0.28871898     0.86400
O565        O  0.83589026  0.89833426  0.98984757    -0.78500
N566        N  0.77750219  0.71664707  0.23217739    -0.01000
C567        C  0.76596763  0.70856101  0.19463452     0.01600
C568        C  0.72261510  0.68214273  0.19643679    -0.21300
C569        C  0.70659294  0.67311143  0.23672811    -0.21500
C570        C  0.74081021  0.69435706  0.25781488     0.01500
H571        H  0.70559403  0.66757247  0.17173424     0.15300
H572        H  0.67276595  0.65548362  0.24898725     0.15300
O573        O  0.55981119  0.82385215  0.05581328    -0.76000
C574        C  0.61087070  0.84366273  0.25956307     0.85000
O575        O  0.61579323  0.65217414  0.05859375    -0.77100
O576        O  0.74626025  0.75688628  0.30421493    -0.78600
O577        O  0.71423017  0.91901803  0.03120439    -0.78400
O578        O  0.60837247  0.86448609  0.09236777    -0.77000
Zn579      Zn  0.59627233  0.78970470  0.01437114     1.55700
O580        O  0.73080138  0.89047142  0.30519037    -0.78400
Cd581      Cd  0.67660103  0.84169920  0.06607860     1.59700
Cd582      Cd  0.67433340  0.70672814  0.04236877     1.59600
O583        O  0.72799706  0.78923941  0.10247975    -0.78400
O584        O  0.65929364  0.79085819  0.02677273    -1.88900
Cd585      Cd  0.69579312  0.81534514  0.30873163     1.59900
O586        O  0.72727948  0.70220402  0.08184577    -0.78400
O587        O  0.65345425  0.82881802  0.25965532    -0.77000
C588        C  0.57994976  0.65865360  0.03716787     0.85500
C589        C  0.56634596  0.85429924  0.08295138     0.85200
O590        O  0.58569658  0.83730975  0.29276532    -0.76000
C591        C  0.73446521  0.92800666  0.99475767     0.86000
O592        O  0.57244987  0.70776712  0.01461313    -0.76100
C593        C  0.74521238  0.73798116  0.10179837     0.86100
C594        C  0.73068305  0.70885192  0.29801013     0.86400
O595        O  0.69936458  0.68063490  0.32234530    -0.78500
N596        N  0.04891580  0.87138368  0.20574412    -0.01000
C597        C  0.05452293  0.90101323  0.16603737     0.01600
C598        C  0.59874050  0.92441179  0.15703698    -0.21300
C599        C  0.62327930  0.90554118  0.19067529    -0.21500
C600        C  0.59297785  0.87272916  0.21993967     0.01500
H601        H  0.61206574  0.95112109  0.12838012     0.15300
H602        H  0.65974295  0.91461687  0.19352788     0.15300
N603        N  0.78878893  0.72073081  0.12036332    -0.01000
C604        C  0.79892260  0.70888527  0.16035634     0.01600
C605        C  0.84160535  0.68235377  0.16532346    -0.21300
C606        C  0.85879276  0.67745229  0.12696074    -0.21500
C607        C  0.82589944  0.70120097  0.10029090     0.01500
H608        H  0.85761779  0.66563429  0.19384726     0.15300
H609        H  0.89269800  0.66138909  0.11913118     0.15300
N610        N  0.52516133  0.88050813  0.10020312    -0.01000
C611        C  0.52092012  0.90478624  0.13470720     0.01600
C612        C  0.97876868  0.93171805  0.13808394    -0.21300
C613        C  0.95402312  0.92092088  0.10639193    -0.21500
C614        C  0.98197226  0.88846386  0.08400456     0.01500
H615        H  0.96678114  0.95510585  0.16196594     0.15300
H616        H  0.91841044  0.93349801  0.10113381     0.15300
O617        O  0.69607774  0.30495895  0.05723698    -0.76000
C618        C  0.71958804  0.35736219  0.25041607     0.85000
O619        O  0.75971478  0.14040460  0.33626967    -0.77100
O620        O  0.85287969  0.29206747  0.25011538    -0.78600
O621        O  0.84403093  0.38796106  0.04008218    -0.78400
O622        O  0.74886730  0.33553222  0.09376934    -0.77000
Zn623      Zn  0.72398363  0.28095836  0.33763754     1.55700
O624        O  0.85078078  0.40784637  0.30440978    -0.78400
Cd625      Cd  0.80324400  0.31428667  0.05571785     1.59700
Cd626      Cd  0.81306961  0.20213964  0.33692663     1.59600
O627        O  0.83686227  0.25164453  0.09435927    -0.78400
O628        O  0.78888642  0.28366412  0.33716383    -1.88900
Cd629      Cd  0.81348454  0.33909280  0.28606034     1.59900
O630        O  0.84972012  0.18178679  0.05704296    -0.78400
O631        O  0.76271238  0.37009113  0.24481375    -0.77000
C632        C  0.71679207  0.15106594  0.33168992     0.85500
C633        C  0.70667978  0.32432089  0.08921545     0.85200
O634        O  0.70401521  0.32659446  0.28423080    -0.76000
C635        C  0.85882701  0.41942295  0.33980876     0.86000
O636        O  0.70198849  0.20156234  0.33337071    -0.76100
C637        C  0.85480969  0.20354153  0.08950489     0.86100
C638        C  0.86471447  0.23895684  0.25097670     0.86400
O639        O  0.85400196  0.19881236  0.28217616    -0.78500
N640        N  0.68743325  0.38113117  0.21967680    -0.01000
C641        C  0.69174964  0.38222473  0.17817686     0.01600
C642        C  0.66617740  0.42976965  0.15987072    -0.21300
C643        C  0.63810912  0.44690947  0.19057874    -0.21500
C644        C  0.64960560  0.41271756  0.22729181     0.01500
H645        H  0.65850411  0.43979902  0.12770164     0.15300
H646        H  0.60694327  0.47243464  0.18547118     0.15300
O647        O  0.62057621  0.20894004  0.32644500    -0.76000
C648        C  0.61299862  0.38769959  0.25936490     0.85000
O649        O  0.55402269  0.31024898  0.09534075    -0.77100
O650        O  0.47729939  0.41881824  0.30923650    -0.78600
O651        O  0.97036690  0.22422872  0.27407036    -0.78400
O652        O  0.56185871  0.15185295  0.31926673    -0.77000
Zn653      Zn  0.59546847  0.28705192  0.33409811     1.55700
O654        O  0.47774645  0.32045442  0.24806175    -0.78400
Cd655      Cd  0.50797632  0.20946534  0.32612617     1.59700
Cd656      Cd  0.50382997  0.30796791  0.05303411     1.59600
O657        O  0.96779052  0.16646155  0.04327664    -0.78400
O658        O  0.53036003  0.28906008  0.33391576    -1.88900
Cd659      Cd  0.51502829  0.35505792  0.28824555     1.59900
O660        O  0.96335736  0.23673924  0.08093001    -0.78400
O661        O  0.57058462  0.39813662  0.25335519    -0.77000
C662        C  0.59751949  0.30379017  0.08947536     0.85500
C663        C  0.60533067  0.15955152  0.32181804     0.85200
O664        O  0.62400123  0.34938330  0.28962338    -0.76000
C665        C  0.96280095  0.26929899  0.24682253     0.86000
O666        O  0.61453779  0.29704839  0.05477716    -0.76100
C667        C  0.95391039  0.18510560  0.07555582     0.86100
C668        C  0.96137895  0.42486919  0.34459678     0.86400
O669        O  0.46732247  0.38718447  0.04306731    -0.78500
N670        N  0.89626783  0.22732440  0.21801034    -0.01000
C671        C  0.88263622  0.22863642  0.17882112     0.01600
C672        C  0.90481973  0.27672357  0.15318463    -0.21300
C673        C  0.93921902  0.29582569  0.17439151    -0.21500
C674        C  0.93473245  0.26195783  0.21292572     0.01500
H675        H  0.90407033  0.28924009  0.12023588     0.15300
H676        H  0.46584698  0.32882984  0.16253056     0.15300
N677        N  0.67150752  0.32736954  0.12215703    -0.01000
C678        C  0.68171535  0.32663795  0.16237537     0.01600
C679        C  0.64955815  0.28924603  0.18765163    -0.21300
C680        C  0.61483217  0.27694341  0.16379144    -0.21500
C681        C  0.62844929  0.30181275  0.12397931     0.01500
H682        H  0.64603069  0.28179921  0.22093422     0.15300
H683        H  0.58208027  0.25481770  0.17465038     0.15300
N684        N  0.88448634  0.17370664  0.11988388    -0.01000
C685        C  0.88493247  0.17335364  0.16115097     0.01600
C686        C  0.91808534  0.13286117  0.17639462    -0.21300
C687        C  0.94347967  0.11905807  0.14296107    -0.21500
C688        C  0.92392305  0.14895741  0.10823486     0.01500
H689        H  0.93062419  0.12605214  0.20711323     0.15300
H690        H  0.47812512  0.10100885  0.14377791     0.15300
N691        N  0.76163171  0.98043878  0.97785481    -0.01000
C692        C  0.80169539  0.98060195  0.95342177     0.01600
C693        C  0.81130361  0.03503582  0.26516856    -0.21300
C694        C  0.77556669  0.06995641  0.27527208    -0.21500
C695        C  0.74549448  0.03608200  0.96989136     0.01500
H696        H  0.84069952  0.04846549  0.24361931     0.15300
H697        H  0.77065339  0.11518896  0.26109189     0.15300
N698        N  0.68496925  0.10663903  0.32290712    -0.01000
C699        C  0.63753063  0.10948347  0.31939842     0.01600
C700        C  0.62101816  0.05731170  0.31082654    -0.21300
C701        C  0.65853704  0.02215002  0.30754245    -0.21500
C702        C  0.69740690  0.05315051  0.31457182     0.01500
H703        H  0.58549468  0.04683266  0.30546101     0.15300
H704        H  0.65759621  0.98031767  0.29772233     0.15300
N705        N  0.00491098  0.60684005  0.68813809    -0.01000
C706        C  0.54743004  0.60681022  0.37119099     0.01600
C707        C  0.55896721  0.55022444  0.38827412    -0.21300
C708        C  0.52285568  0.51432753  0.38259809    -0.21500
C709        C  0.98990291  0.54941051  0.69581223     0.01500
H710        H  0.59032079  0.53637719  0.40366041     0.15300
H711        H  0.52043108  0.46772397  0.39420087     0.15300
N712        N  0.93198063  0.47346746  0.68070391    -0.01000
C713        C  0.88567211  0.47212551  0.67631886     0.01600
C714        C  0.86584813  0.52243167  0.68524165    -0.21300
C715        C  0.90187100  0.55664403  0.69385777    -0.21500
C716        C  0.94269447  0.52699051  0.68914886     0.01500
H717        H  0.82914057  0.53173245  0.68766392     0.15300
H718        H  0.89837145  0.59710667  0.70484824     0.15300
O719        O  0.98813298  0.70778013  0.67778958    -0.76000
C720        C  0.00615501  0.84744307  0.56293631     0.85000
O721        O  0.91745772  0.85415231  0.38684924    -0.77100
O722        O  0.85612075  0.91691379  0.58991660    -0.78600
O723        O  0.83786037  0.70263028  0.61000107    -0.78400
O724        O  0.94752640  0.65341180  0.64462010    -0.77000
Zn725      Zn  0.97214056  0.79092431  0.65040521     1.55700
O726        O  0.84188116  0.78367814  0.56088643    -0.78400
Cd727      Cd  0.89214189  0.71125119  0.64553727     1.59700
Cd728      Cd  0.87410266  0.82851756  0.34567046     1.59600
O729        O  0.86694429  0.69178752  0.37210437    -0.78400
O730        O  0.90942591  0.79526387  0.63637303    -1.88900
Cd731      Cd  0.89463864  0.83905883  0.58104730     1.59900
O732        O  0.82571902  0.77079039  0.37509543    -0.78400
O733        O  0.96484143  0.85848560  0.54973551    -0.77000
C734        C  0.96154875  0.86032002  0.38530986     0.85500
C735        C  0.97947946  0.65792380  0.66904476     0.85200
O736        O  0.01072737  0.81882476  0.59899974    -0.76000
C737        C  0.82170985  0.73477142  0.57861592     0.86000
O738        O  0.98660161  0.84359443  0.35710504    -0.76100
C739        C  0.83812689  0.72005799  0.39075647     0.86100
C740        C  0.83303575  0.92848284  0.62192382     0.86400
O741        O  0.83582597  0.89731195  0.32380155    -0.78500
N742        N  0.77758882  0.71589663  0.56556913    -0.01000
C743        C  0.76599996  0.70744643  0.52811706     0.01600
C744        C  0.72263052  0.68104056  0.53005145    -0.21300
C745        C  0.70664221  0.67236295  0.57033081    -0.21500
C746        C  0.74088922  0.69381746  0.59127633     0.01500
H747        H  0.70557622  0.66624977  0.50544830     0.15300
H748        H  0.67280946  0.65484699  0.58266643     0.15300
O749        O  0.55972933  0.82311785  0.38933371    -0.76000
C750        C  0.61084142  0.84389717  0.59293097     0.85000
O751        O  0.61561832  0.65103577  0.39206956    -0.77100
O752        O  0.74623300  0.75692840  0.63728332    -0.78600
O753        O  0.71417398  0.91778372  0.36517900    -0.78400
O754        O  0.60823667  0.86328328  0.42619563    -0.77000
Zn755      Zn  0.59610756  0.78867769  0.34801130     1.55700
O756        O  0.73088770  0.89032180  0.63854306    -0.78400
Cd757      Cd  0.67645855  0.84039757  0.39990489     1.59700
Cd758      Cd  0.67412818  0.70559086  0.37578944     1.59600
O759        O  0.72781433  0.78769050  0.43621072    -0.78400
O760        O  0.65911756  0.78976318  0.36045851    -1.88900
Cd761      Cd  0.69578381  0.81532961  0.64203209     1.59900
O762        O  0.72713658  0.70090594  0.41521117    -0.78400
O763        O  0.65343862  0.82913288  0.59298241    -0.77000
C764        C  0.57967836  0.65762139  0.37077576     0.85500
C765        C  0.56623141  0.85338279  0.41658325     0.85200
O766        O  0.58566638  0.83733744  0.62614542    -0.76000
C767        C  0.73440354  0.92694733  0.32872543     0.86000
O768        O  0.57212294  0.70680039  0.34833810    -0.76100
C769        C  0.74505288  0.73649449  0.43532469     0.86100
C770        C  0.73074233  0.70871307  0.63133674     0.86400
O771        O  0.69950190  0.68055457  0.65579335    -0.78500
N772        N  0.04905820  0.87099333  0.53911868    -0.01000
C773        C  0.05467095  0.90069328  0.49943499     0.01600
C774        C  0.59861487  0.92439919  0.49032390    -0.21300
C775        C  0.62315700  0.90581689  0.52401489    -0.21500
C776        C  0.59290500  0.87299923  0.55332984     0.01500
H777        H  0.61192205  0.95092436  0.46158998     0.15300
H778        H  0.65961123  0.91498637  0.52683872     0.15300
N779        N  0.78862167  0.71909864  0.45386281    -0.01000
C780        C  0.79885747  0.70743914  0.49383017     0.01600
C781        C  0.84148430  0.68077643  0.49878209    -0.21300
C782        C  0.85855685  0.67567771  0.46041495    -0.21500
C783        C  0.82565756  0.69947090  0.43375752     0.01500
H784        H  0.85755931  0.66420743  0.52729955     0.15300
H785        H  0.89246036  0.65963415  0.45256004     0.15300
N786        N  0.52504620  0.87970957  0.43373576    -0.01000
C787        C  0.52082524  0.90433008  0.46808676     0.01600
C788        C  0.97893815  0.93138278  0.47145789    -0.21300
C789        C  0.95417541  0.92044923  0.43981396    -0.21500
C790        C  0.98211829  0.88791204  0.41747973     0.01500
H791        H  0.96694967  0.95481614  0.49531512     0.15300
H792        H  0.91854879  0.93296903  0.43456536     0.15300
O793        O  0.69607142  0.30442585  0.39073100    -0.76000
C794        C  0.71966003  0.35714554  0.58380921     0.85000
O795        O  0.75994437  0.14029931  0.66951222    -0.77100
O796        O  0.85298441  0.29191242  0.58344351    -0.78600
O797        O  0.84409180  0.38728412  0.37347077    -0.78400
O798        O  0.74890099  0.33513633  0.42716499    -0.77000
Zn799      Zn  0.72410285  0.28078899  0.67105977     1.55700
O800        O  0.85089544  0.40775390  0.63766920    -0.78400
Cd801      Cd  0.80320270  0.31372333  0.38914245     1.59700
Cd802      Cd  0.81320930  0.20208606  0.67028895     1.59600
O803        O  0.83674673  0.25109428  0.42785346    -0.78400
O804        O  0.78900240  0.28360202  0.67051946    -1.88900
Cd805      Cd  0.81360222  0.33895951  0.61938644     1.59900
O806        O  0.84974721  0.18129847  0.39051288    -0.78400
O807        O  0.76277758  0.36992019  0.57820524    -0.77000
C808        C  0.71699522  0.15089437  0.66506802     0.85500
C809        C  0.70671508  0.32384982  0.42267531     0.85200
O810        O  0.70409552  0.32634149  0.61761822    -0.76000
C811        C  0.85892048  0.41938338  0.67305613     0.86000
O812        O  0.70214974  0.20132984  0.66689171    -0.76100
C813        C  0.85477308  0.20304064  0.42299111     0.86100
C814        C  0.86486775  0.23880963  0.58435964     0.86400
O815        O  0.85421201  0.19871563  0.61560033    -0.78500
N816        N  0.68750964  0.38090054  0.55306271    -0.01000
C817        C  0.69181852  0.38188307  0.51157843     0.01600
C818        C  0.66619868  0.42933867  0.49321206    -0.21300
C819        C  0.63814168  0.44656362  0.52389175    -0.21500
C820        C  0.64966804  0.41248879  0.56063993     0.01500
H821        H  0.65850812  0.43925314  0.46104471     0.15300
H822        H  0.60695729  0.47204511  0.51875830     0.15300
O823        O  0.62079857  0.20888432  0.65967963    -0.76000
C824        C  0.61306984  0.38747915  0.59271871     0.85000
O825        O  0.55415147  0.30926189  0.42919349    -0.77100
O826        O  0.47738538  0.41850200  0.64243290    -0.78600
O827        O  0.97044797  0.22416365  0.60742319    -0.78400
O828        O  0.56202793  0.15153367  0.65304033    -0.77000
Zn829      Zn  0.59563286  0.28695285  0.66748603     1.55700
O830        O  0.47778943  0.31975281  0.58151505    -0.78400
Cd831      Cd  0.50810365  0.20912076  0.65979364     1.59700
Cd832      Cd  0.50385021  0.30684851  0.38699485     1.59600
O833        O  0.96764778  0.16576180  0.37682433    -0.78400
O834        O  0.53050417  0.28882352  0.66733676    -1.88900
Cd835      Cd  0.51509043  0.35460571  0.62156466     1.59900
O836        O  0.96341947  0.23603867  0.41449235    -0.78400
O837        O  0.57063220  0.39756656  0.58658237    -0.77000
C838        C  0.59762673  0.30273051  0.42324866     0.85500
C839        C  0.60553243  0.15938015  0.65529471     0.85200
O840        O  0.62414631  0.34945304  0.62311327    -0.76000
C841        C  0.96295650  0.26918695  0.58011087     0.86000
O842        O  0.61453593  0.29585887  0.38854493    -0.76100
C843        C  0.95386502  0.18443395  0.40911846     0.86100
C844        C  0.96144842  0.42476423  0.67791770     0.86400
O845        O  0.46730595  0.38611677  0.37697581    -0.78500
N846        N  0.89639220  0.22713693  0.55139105    -0.01000
C847        C  0.88270479  0.22834953  0.51223211     0.01600
C848        C  0.90489181  0.27636209  0.48651889    -0.21300
C849        C  0.93931947  0.29553692  0.50766852    -0.21500
C850        C  0.93485527  0.26177928  0.54624238     0.01500
H851        H  0.90409070  0.28879147  0.45356837     0.15300
H852        H  0.46606294  0.32769939  0.49600480     0.15300
N853        N  0.67161151  0.32680293  0.45568217    -0.01000
C854        C  0.68193392  0.32619884  0.49585551     0.01600
C855        C  0.65000474  0.28859964  0.52124157    -0.21300
C856        C  0.61527308  0.27596941  0.49749549    -0.21500
C857        C  0.62867568  0.30090006  0.45764699     0.01500
H858        H  0.64658871  0.28119465  0.55452713     0.15300
H859        H  0.58263726  0.25361839  0.50845651     0.15300
N860        N  0.88442625  0.17322694  0.45340296    -0.01000
C861        C  0.88487936  0.17298400  0.49465642     0.01600
C862        C  0.91797080  0.13244201  0.50995843    -0.21300
C863        C  0.94335251  0.11851477  0.47656092    -0.21500
C864        C  0.92383541  0.14837731  0.44180241     0.01500
H865        H  0.93049982  0.12568064  0.54067976     0.15300
H866        H  0.47774766  0.09981272  0.47782427     0.15300
N867        N  0.76156626  0.97943860  0.31193011    -0.01000
C868        C  0.80166437  0.97970727  0.28753017     0.01600
C869        C  0.81140399  0.03471884  0.59832003    -0.21300
C870        C  0.77573827  0.06972037  0.60847264    -0.21500
C871        C  0.74539951  0.03507162  0.30396523     0.01500
H872        H  0.84075640  0.04807948  0.57670811     0.15300
H873        H  0.77083734  0.11494730  0.59427193     0.15300
N874        N  0.68518230  0.10648503  0.65625491    -0.01000
C875        C  0.63773951  0.10934068  0.65278067     0.01600
C876        C  0.62121749  0.05721236  0.64414447    -0.21300
C877        C  0.65873224  0.02207037  0.64078856    -0.21500
C878        C  0.69761219  0.05302874  0.64784765     0.01500
H879        H  0.58568898  0.04675474  0.63878211     0.15300
H880        H  0.65778017  0.98027570  0.63091567     0.15300
N881        N  0.00488853  0.60777876  0.02120495    -0.01000
C882        C  0.54764788  0.60666700  0.70455963     0.01600
C883        C  0.55922653  0.55007690  0.72159834    -0.21300
C884        C  0.52314528  0.51415214  0.71587953    -0.21500
C885        C  0.98991027  0.55033169  0.02882860     0.01500
H886        H  0.59058742  0.53624399  0.73697652     0.15300
H887        H  0.52075504  0.46753700  0.72744043     0.15300
N888        N  0.93192511  0.47429275  0.01394009    -0.01000
C889        C  0.88558312  0.47284102  0.00975353     0.01600
C890        C  0.86577092  0.52314309  0.01870166    -0.21300
C891        C  0.90182582  0.55747953  0.02712329    -0.21500
C892        C  0.94266036  0.52787151  0.02229770     0.01500
H893        H  0.82906128  0.53240073  0.02121136     0.15300
H894        H  0.89832812  0.59802839  0.03804081     0.15300
O895        O  0.98814920  0.70875281  0.01089400    -0.76000
C896        C  0.00612783  0.84833254  0.89605170     0.85000
O897        O  0.91746346  0.85383342  0.72012663    -0.77100
O898        O  0.85606934  0.91795759  0.92273165    -0.78600
O899        O  0.83788031  0.70362201  0.94329200    -0.78400
O900        O  0.94740120  0.65439458  0.97783576    -0.77000
Zn901      Zn  0.97210222  0.79195719  0.98355419     1.55700
O902        O  0.84193025  0.78445337  0.89398982    -0.78400
Cd903      Cd  0.89214796  0.71238356  0.97875346     1.59700
Cd904      Cd  0.87414316  0.82818790  0.67891857     1.59600
O905        O  0.86705016  0.69154621  0.70553447    -0.78400
O906        O  0.90940964  0.79640375  0.96944390    -1.88900
Cd907      Cd  0.89461882  0.84001621  0.91405966     1.59900
O908        O  0.82570887  0.77050520  0.70830289    -0.78400
O909        O  0.96483313  0.85928663  0.88278716    -0.77000
C910        C  0.96155032  0.86007021  0.71856861     0.85500
C911        C  0.97942589  0.65888634  0.00218771     0.85200
O912        O  0.01066964  0.81989618  0.93216979    -0.76000
C913        C  0.82176355  0.73559472  0.91182532     0.86000
O914        O  0.98661535  0.84335160  0.69037147    -0.76100
C915        C  0.83818467  0.71986586  0.72410327     0.86100
C916        C  0.83300367  0.92967557  0.95470337     0.86400
O917        O  0.83590300  0.89700704  0.65702095    -0.78500
N918        N  0.77766767  0.71659696  0.89882118    -0.01000
C919        C  0.76609139  0.70794653  0.86141648     0.01600
C920        C  0.72274204  0.68146604  0.86341768    -0.21300
C921        C  0.70676366  0.67293702  0.90369585    -0.21500
C922        C  0.74099893  0.69454674  0.92456988     0.01500
H923        H  0.70570169  0.66651791  0.83886618     0.15300
H924        H  0.67295044  0.65540493  0.91607441     0.15300
O925        O  0.55970371  0.82295006  0.72271703    -0.76000
C926        C  0.61086593  0.84490612  0.92593070     0.85000
O927        O  0.61577542  0.65099122  0.72547579    -0.77100
O928        O  0.74630696  0.75791040  0.97039239    -0.78600
O929        O  0.71424037  0.91777064  0.69847778    -0.78400
O930        O  0.60821260  0.86341605  0.75941846    -0.77000
Zn931      Zn  0.59614367  0.78860207  0.68138058     1.55700
O932        O  0.73087210  0.89140007  0.97132345    -0.78400
Cd933      Cd  0.67647160  0.84044285  0.73321675     1.59700
Cd934      Cd  0.67424475  0.70561035  0.70917289     1.59600
O935        O  0.72784914  0.78778550  0.76954811    -0.78400
O936        O  0.65916745  0.78974781  0.69379635    -1.88900
Cd937      Cd  0.69583032  0.81632047  0.97496066     1.59900
O938        O  0.72726134  0.70099737  0.74855412    -0.78400
O939        O  0.65341830  0.82993613  0.92593909    -0.77000
C940        C  0.57984981  0.65751795  0.70416104     0.85500
C941        C  0.56620543  0.85339689  0.74986106     0.85200
O942        O  0.58576528  0.83855333  0.95917885    -0.76000
C943        C  0.73451368  0.92683078  0.66204307     0.86000
O944        O  0.57226679  0.70667739  0.68170612    -0.76100
C945        C  0.74514534  0.73661882  0.76865442     0.86100
C946        C  0.73087102  0.70959813  0.96457876     0.86400
O947        O  0.69969025  0.68145164  0.98910842    -0.78500
N948        N  0.04904414  0.87177193  0.87222497    -0.01000
C949        C  0.05469529  0.90120951  0.83247852     0.01600
C950        C  0.59857671  0.92510208  0.82324548    -0.21300
C951        C  0.62314251  0.90666171  0.85694559    -0.21500
C952        C  0.59289699  0.87398385  0.88633872     0.01500
H953        H  0.61188218  0.95144567  0.79444217     0.15300
H954        H  0.65961653  0.91578394  0.85971096     0.15300
N955        N  0.78872095  0.71927381  0.78719573    -0.01000
C956        C  0.79895883  0.70778681  0.82716123     0.01600
C957        C  0.84156332  0.68108238  0.83217151    -0.21300
C958        C  0.85862044  0.67578044  0.79383706    -0.21500
C959        C  0.82573249  0.69949907  0.76714054     0.01500
H960        H  0.85762645  0.66461650  0.86071230     0.15300
H961        H  0.89250420  0.65964280  0.78602400     0.15300
N962        N  0.52501190  0.87982286  0.76691873    -0.01000
C963        C  0.52078675  0.90478929  0.80111410     0.01600
C964        C  0.97897265  0.93172860  0.80442377    -0.21300
C965        C  0.95417839  0.92051716  0.77287777    -0.21500
C966        C  0.98210626  0.88779751  0.75067294     0.01500
H967        H  0.96700722  0.95537435  0.82816937     0.15300
H968        H  0.91855532  0.93301807  0.76759424     0.15300
O969        O  0.69620515  0.30437618  0.72412308    -0.76000
C970        C  0.71978457  0.35809092  0.91691700     0.85000
O971        O  0.75980086  0.14114025  0.00251515    -0.77100
O972        O  0.85312829  0.29263694  0.91667561    -0.78600
O973        O  0.84417703  0.38729293  0.70673098    -0.78400
O974        O  0.74901386  0.33533793  0.76045574    -0.77000
Zn975      Zn  0.72408495  0.28165450  0.00412291     1.55700
O976        O  0.85094853  0.40845227  0.97102296    -0.78400
Cd977      Cd  0.80328880  0.31377527  0.72246275     1.59700
Cd978      Cd  0.81315034  0.20276147  0.00341384     1.59600
O979        O  0.83681628  0.25117916  0.76118916    -0.78400
O980        O  0.78900202  0.28430137  0.00368909    -1.88900
Cd981      Cd  0.81370044  0.33969790  0.95261013     1.59900
O982        O  0.84979539  0.18129515  0.72391424    -0.78400
O983        O  0.76293532  0.37069193  0.91135053    -0.77000
C984        C  0.71689721  0.15188585  0.99790784     0.85500
C985        C  0.70683623  0.32396162  0.75600688     0.85200
O986        O  0.70412525  0.32739168  0.95073107    -0.76000
C987        C  0.85885315  0.42008104  0.00643846     0.86000
O988        O  0.70211093  0.20234975  0.99970392    -0.76100
C989        C  0.85482845  0.20310216  0.75636336     0.86100
C990        C  0.86492174  0.23950638  0.91753955     0.86400
O991        O  0.85416383  0.19938101  0.94873295    -0.78500
N992        N  0.68772485  0.38186151  0.88608617    -0.01000
C993        C  0.69203298  0.38252773  0.84464021     0.01600
C994        C  0.66650464  0.42996409  0.82610664    -0.21300
C995        C  0.63846493  0.44748262  0.85668000    -0.21500
C996        C  0.64990571  0.41357857  0.89351892     0.01500
H997        H  0.65883607  0.43967556  0.79392905     0.15300
H998        H  0.60731701  0.47300482  0.85143573     0.15300
O999        O  0.62072128  0.21000444  0.99264588    -0.76000
C1000       C  0.61321504  0.38875244  0.92556209     0.85000
O1001       O  0.55427976  0.30930487  0.76254555    -0.77100
O1002       O  0.47750310  0.42020635  0.97537969    -0.78600
O1003       O  0.97050669  0.22503374  0.94053956    -0.78400
O1004       O  0.56201777  0.15307923  0.98516917    -0.77000
Zn1005     Zn  0.59557679  0.28818271  0.00030471     1.55700
O1006       O  0.47771754  0.32179955  0.91419080    -0.78400
Cd1007     Cd  0.50815147  0.21065432  0.99220361     1.59700
Cd1008     Cd  0.50399962  0.30683660  0.72034654     1.59600
O1009       O  0.96767344  0.16572365  0.71018678    -0.78400
O1010       O  0.53047325  0.29025624  0.99999122    -1.88900
Cd1011     Cd  0.51514913  0.35634239  0.95434509     1.59900
O1012       O  0.96349707  0.23602929  0.74782779    -0.78400
O1013       O  0.57081661  0.39922232  0.91946512    -0.77000
C1014       C  0.59775480  0.30274562  0.75662924     0.85500
C1015       C  0.60547839  0.16068334  0.98784872     0.85200
O1016       O  0.62414817  0.35049611  0.95587720    -0.76000
C1017       C  0.96296300  0.27003623  0.91323317     0.86000
O1018       O  0.61467483  0.29576067  0.72195339    -0.76100
C1019       C  0.95390616  0.18442881  0.74247505     0.86100
C1020       C  0.96139735  0.42560375  0.01110651     0.86400
O1021       O  0.46758621  0.38614367  0.71022035    -0.78500
N1022       N  0.89646474  0.22781347  0.88458172    -0.01000
C1023       C  0.88281226  0.22881683  0.84543694     0.01600
C1024       C  0.90500738  0.27674940  0.81963643    -0.21300
C1025       C  0.93938552  0.29610380  0.84075440    -0.21500
C1026       C  0.93488847  0.26252099  0.87938209     0.01500
H1027       H  0.90424076  0.28901474  0.78667349     0.15300
H1028       H  0.46554548  0.32949616  0.82851678     0.15300
N1029       N  0.67173207  0.32701295  0.78899433    -0.01000
C1030       C  0.68203401  0.32669958  0.82913660     0.01600
C1031       C  0.65004987  0.28930765  0.85462050    -0.21300
C1032       C  0.61533833  0.27648564  0.83091863    -0.21500
C1033       C  0.62879338  0.30109756  0.79101992     0.01500
H1034       H  0.64660175  0.28216305  0.88789849     0.15300
H1035       H  0.58267642  0.25423581  0.84193233     0.15300
N1036       N  0.88448640  0.17334130  0.78678421    -0.01000
C1037       C  0.88501944  0.17332829  0.82800333     0.01600
C1038       C  0.91814059  0.13286450  0.84335289    -0.21300
C1039       C  0.94343463  0.11871430  0.80998263    -0.21500
C1040       C  0.92387608  0.14842706  0.77519608     0.01500
H1041       H  0.93073803  0.12628696  0.87404524     0.15300
H1042       H  0.47764309  0.10052861  0.81176249     0.15300
N1043       N  0.76172521  0.97925897  0.64520592    -0.01000
C1044       C  0.80176210  0.97941983  0.62073398     0.01600
C1045       C  0.81135300  0.03591856  0.93103439    -0.21300
C1046       C  0.77566556  0.07091384  0.94117154    -0.21500
C1047       C  0.74559906  0.03491348  0.63723592     0.01500
H1048       H  0.84074410  0.04930530  0.90947161     0.15300
H1049       H  0.77078621  0.11616067  0.92700697     0.15300
N1050       N  0.68507240  0.10760562  0.98895207    -0.01000
C1051       C  0.63764911  0.11057634  0.98536654     0.01600
C1052       C  0.62112152  0.05850743  0.97662928    -0.21300
C1053       C  0.65862042  0.02330812  0.97332157    -0.21500
C1054       C  0.69749563  0.05418021  0.98049312     0.01500
H1055       H  0.58560569  0.04812735  0.97117351     0.15300
H1056       H  0.65767891  0.98154512  0.96340111     0.15300
loop_ 
_geom_bond_atom_site_label_1 
_geom_bond_atom_site_label_2 
_geom_bond_distance 
_geom_bond_site_symmetry_2 
_ccdc_geom_bond_type 
N1            C5   1.374       .  A
N1          C706   1.374       .  A
N1           C31   1.459       .  S
C2          N881   1.374       .  A
C2            C3   1.382       .  A
C2           C60   1.496       .  S
C3            C4   1.373       .  A
C3            H6   1.083       .  S
C4          C885   1.383   1_455  A
C4            H7   1.080       .  S
C5          C708   1.383       .  A
C5           C12   1.496       .  S
N8           C12   1.362       .  A
N8            C9   1.351       .  A
N8          C140   1.432       .  S
C9           C10   1.377       .  A
C9          C107   1.468       .  S
C10          C11   1.378       .  A
C10          H13   1.082       .  S
C11          C12   1.382       .  A
C11          H14   1.073       .  S
O15          C31   1.272       .  A
O15         Zn21   2.043       .  S
C16          N68   1.474       .  S
C16          O32   1.269       .  A
C16          O29   1.301       .  A
O17          C30   1.275       .  A
O17         Cd24   2.064       .  S
O18          C36   1.292       .  A
O18         Cd27   2.185       .  S
O19          C33   1.274       .  A
O19         Cd23   2.039       .  S
O20          C31   1.275       .  A
O20         Cd23   2.094       .  S
Zn21         O32   1.982       .  S
Zn21        O210   2.017       .  S
Zn21         O26   1.889       .  S
O22          C33   1.296       .  A
O22         Cd27   2.196       .  S
Cd23        O201   2.044       .  S
Cd23         O26   1.975       .  S
Cd24         O28   2.009       .  S
Cd24         O37   1.993   1_554  S
Cd24        O378   1.963   1_554  S
O25          C35   1.266       .  A
O25        Cd375   2.044   1_554  S
O26         Cd27   1.993       .  S
O26        Cd200   1.963       .  S
Cd27         O29   2.225       .  S
O28          C35   1.259       .  A
C30          C86   1.489       .  S
C30          O34   1.268       .  A
C33          N38   1.456       .  S
O34        Zn373   2.017   1_554  S
C35          C79   1.440       .  S
C36         C340   1.487       .  S
C36         O213   1.260       .  A
O37         C388   1.260       .  A
N38          C42   1.355       .  A
N38          C39   1.351       .  A
C39          C40   1.382       .  A
C39          C76   1.438       .  S
C40          C41   1.365       .  A
C40          H43   1.082       .  S
C41          C42   1.379       .  A
C41          H44   1.083       .  S
C42          C66   1.448       .  S
O45          C61   1.264       .  A
O45         Zn51   1.968       .  S
C46          C72   1.481       .  S
C46          O62   1.268       .  A
C46          O59   1.276       .  A
O47          C60   1.279       .  A
O47         Cd54   2.088       .  S
O48          C66   1.257       .  A
O48         Cd57   2.013       .  S
O49          C63   1.292   1_554  A
O49         Cd53   2.193       .  S
O50          C61   1.298       .  A
O50         Cd53   2.213       .  S
Zn51         O64   2.019       .  S
Zn51        O414   2.004   1_554  S
Zn51         O56   1.884       .  S
O52         C239   1.261       .  A
O52         Cd57   1.991       .  S
Cd53         O55   2.192       .  S
Cd53         O56   1.994       .  S
Cd54         O58   2.054       .  S
Cd54        O419   2.059   1_554  S
Cd54         O56   1.983       .  S
O55          C65   1.297       .  A
O56        Cd409   1.954   1_554  S
Cd57         O59   2.065       .  S
Cd57        O232   1.954       .  S
O58          C65   1.278       .  A
C60          O64   1.269       .  A
C61          N82   1.472       .  S
O62        Zn227   2.004       .  S
C63         N163   1.449       .  S
C63         O404   1.261       .  A
C65          N75   1.454       .  S
C66          O67   1.269       .  A
O67        Cd230   2.059       .  S
N68          C69   1.367       .  A
N68         C600   1.378       .  A
C69         C598   1.376       .  A
C69         C611   1.453       .  S
C70          C71   1.358       .  A
C70         C597   1.376       .  A
C70          H73   1.082       .  S
C71          C72   1.381       .  A
C71          H74   1.083       .  S
C72         N596   1.378       .  A
N75          C79   1.353       .  A
N75          C76   1.351       .  A
C76          C77   1.383       .  A
C77          C78   1.363       .  A
C77          H80   1.082       .  S
C78          C79   1.379       .  A
C78          H81   1.083       .  S
N82          C83   1.366       .  A
N82         C614   1.379   1_455  A
C83         C612   1.375   1_455  A
C83         C597   1.454       .  S
C84          C85   1.361       .  A
C84         C611   1.375       .  A
C84          H87   1.083       .  S
C85          C86   1.384       .  A
C85          H88   1.083       .  S
C86         N610   1.378       .  A
O89         C105   1.277       .  A
O89        Zn447   2.060       .  S
C90         N112   1.450       .  S
C90         O106   1.269       .  A
C90         O103   1.271       .  A
O91         C104   1.274       .  A
O91         Cd98   2.101       .  S
O92         C110   1.278       .  A
O92        Cd101   2.061       .  S
O93         C459   1.271       .  A
O93         Cd97   2.041       .  S
O94         C105   1.265       .  A
O94         Cd97   2.075       .  S
Zn95        O106   2.003       .  S
Zn95        O108   1.979       .  S
Zn95        O265   2.059       .  S
Zn95        O100   1.870       .  S
O96         C107   1.284       .  A
O96        Cd101   2.119       .  S
Cd97         O99   2.039       .  S
Cd97        O452   2.037       .  S
Cd98        O111   2.122       .  S
Cd98        O278   2.097       .  S
Cd98        O100   2.023       .  S
O99         C109   1.268       .  A
O100       Cd101   2.018       .  S
O100       Cd273   2.037       .  S
Cd101       O103   2.095       .  S
O102        C109   1.285       .  A
O102       Cd450   2.095       .  S
C104        N170   1.456       .  S
C104        O108   1.261       .  A
C105        N149   1.459       .  S
C107        O269   1.271       .  A
C109        N156   1.437       .  S
C110        N142   1.447       .  S
C110        O111   1.279       .  A
N112        C116   1.355       .  A
N112        C113   1.369       .  A
C113        C114   1.393       .  A
C113        C150   1.513       .  S
C114        C115   1.382       .  A
C114        H117   1.083       .  S
C115        C116   1.381       .  A
C115        H118   1.083       .  S
C116        C120   1.489       .  S
O119        C135   1.266       .  A
O119       Zn125   2.013       .  S
C120        O136   1.266       .  A
C120        O133   1.266       .  A
O121        C134   1.271       .  A
O121       Cd128   2.075       .  S
O122        C668   1.269       .  A
O122       Cd131   2.044   1_655  S
O123        C137   1.277       .  A
O123       Cd655   2.062       .  S
O124        C135   1.274       .  A
O124       Cd127   2.086       .  S
Zn125       O136   1.999       .  S
Zn125       O314   1.961       .  S
Zn125       O130   1.877       .  S
O126        C665   1.271       .  A
O126       Cd131   2.030   1_655  S
Cd127       O651   2.062   1_455  S
Cd127       O833   2.085   1_455  S
Cd127       O130   2.022       .  S
Cd128       O141   2.107   1_455  S
Cd128       O660   2.054   1_455  S
Cd128       O482   1.992       .  S
O129        C139   1.272       .  A
O129      Cd1007   2.086   1_554  S
O130       Cd131   2.014       .  S
O130       Cd304   1.992       .  S
Cd131       O133   2.060       .  S
O132        C139   1.275       .  A
O132       Cd656   2.054       .  S
C134        C153   1.482       .  S
C134        O138   1.262       .  A
C135        C171   1.503       .  S
C137        C146   1.454       .  S
C137        O654   1.271       .  A
O138       Zn477   1.961       .  S
C139        C160   1.474       .  S
C140        O650   1.269       .  A
C140        O845   1.282       .  A
O141       C1020   1.281       .  A
N142        C146   1.350       .  A
N142        C143   1.372       .  A
C143        C144   1.399       .  A
C143        C157   1.508       .  S
C144        C145   1.364       .  A
C144        H147   1.078       .  S
C145        C146   1.368       .  A
C145        H676   1.083       .  S
H148        C673   1.083       .  S
N149        C153   1.365       .  A
N149        C150   1.377       .  A
C150        C151   1.396       .  A
C151        C152   1.370       .  A
C151        H154   1.083       .  S
C152        C153   1.372       .  A
C152        H155   1.083       .  S
N156        C160   1.346       .  A
N156        C157   1.366       .  A
C157        C158   1.392       .  A
C158        C159   1.382       .  A
C158        H161   1.083       .  S
C159        C160   1.379       .  A
C159        H690   1.083       .  S
H162        C687   1.083       .  S
N163        C167   1.361   1_565  A
N163        C164   1.372       .  A
C164        C517   1.378   1_565  A
C164        C388   1.487       .  S
C165        C166   1.379       .  A
C165        C340   1.378   1_545  A
C165        H168   1.082       .  S
C166        C343   1.389       .  A
C166        H169   1.082       .  S
C167        C518   1.389       .  A
C167        C526   1.489       .  S
N170        C174   1.368       .  A
N170        C171   1.379       .  A
C171        C172   1.383       .  A
C172        C173   1.370       .  A
C172        H175   1.082       .  S
C173        C174   1.382       .  A
C173        H176   1.082   1_545  S
C174        C343   1.490       .  S
N177        C181   1.374       .  A
N177        C882   1.374       .  A
N177        C207   1.459       .  S
C178        N529   1.374       .  A
C178        C179   1.382       .  A
C178        C236   1.496       .  S
C179        C180   1.373       .  A
C179        H182   1.083       .  S
C180        C533   1.383   1_455  A
C180        H183   1.080       .  S
C181        C884   1.383       .  A
C181        C188   1.496       .  S
N184        C188   1.362       .  A
N184        C185   1.351       .  A
N184        C316   1.432       .  S
C185        C186   1.377       .  A
C185        C283   1.468       .  S
C186        C187   1.378       .  A
C186        H189   1.082       .  S
C187        C188   1.382       .  A
C187        H190   1.073       .  S
O191        C207   1.272       .  A
O191       Zn197   2.043       .  S
C192        N244   1.474       .  S
C192        O208   1.269       .  A
C192        O205   1.301       .  A
O193        C206   1.275       .  A
O193       Cd200   2.064       .  S
O194        C212   1.292       .  A
O194       Cd203   2.185       .  S
O195        C209   1.274       .  A
O195       Cd199   2.039       .  S
O196        C207   1.275       .  A
O196       Cd199   2.094       .  S
Zn197       O208   1.981       .  S
Zn197       O386   2.017       .  S
Zn197       O202   1.888       .  S
O198        C209   1.296       .  A
O198       Cd203   2.196       .  S
Cd199       O377   2.045       .  S
Cd199       O202   1.975       .  S
Cd200       O204   2.009       .  S
Cd200       O213   1.993       .  S
O201        C211   1.266       .  A
O202       Cd376   1.963       .  S
O202       Cd203   1.992       .  S
Cd203       O205   2.225       .  S
O204        C211   1.259       .  A
C206        C262   1.489       .  S
C206        O210   1.268       .  A
C209        N214   1.456       .  S
C211        C255   1.440       .  S
C212        C516   1.487       .  S
C212        O389   1.260       .  A
N214        C218   1.356       .  A
N214        C215   1.351       .  A
C215        C216   1.382       .  A
C215        C252   1.438       .  S
C216        C217   1.365       .  A
C216        H219   1.082       .  S
C217        C218   1.379       .  A
C217        H220   1.083       .  S
C218        C242   1.448       .  S
O221        C237   1.264       .  A
O221       Zn227   1.967       .  S
C222        C248   1.481       .  S
C222        O238   1.268       .  A
C222        O235   1.276       .  A
O223        C236   1.279       .  A
O223       Cd230   2.088       .  S
O224        C242   1.257       .  A
O224       Cd233   2.014       .  S
O225        C239   1.292       .  A
O225       Cd229   2.192       .  S
O226        C237   1.298       .  A
O226       Cd229   2.213       .  S
Zn227       O240   2.019       .  S
Zn227       O232   1.885       .  S
O228        C415   1.261       .  A
O228       Cd233   1.992       .  S
Cd229       O231   2.192       .  S
Cd229       O232   1.995       .  S
Cd230       O234   2.055       .  S
Cd230       O232   1.983       .  S
O231        C241   1.296       .  A
Cd233       O235   2.065       .  S
Cd233       O408   1.954       .  S
O234        C241   1.278       .  A
C236        O240   1.269       .  A
C237        N258   1.472       .  S
O238       Zn403   2.003       .  S
C239        N339   1.448       .  S
C241        N251   1.454       .  S
C242        O243   1.269       .  A
O243       Cd406   2.060       .  S
N244        C776   1.378       .  A
N244        C245   1.367       .  A
C245        C774   1.376       .  A
C245        C787   1.453       .  S
C246        C773   1.376       .  A
C246        C247   1.358       .  A
C246        H249   1.082       .  S
C247        C248   1.381       .  A
C247        H250   1.083       .  S
C248        N772   1.378       .  A
N251        C255   1.353       .  A
N251        C252   1.351       .  A
C252        C253   1.383       .  A
C253        C254   1.363       .  A
C253        H256   1.082       .  S
C254        C255   1.379       .  A
C254        H257   1.083       .  S
N258        C790   1.378   1_455  A
N258        C259   1.366       .  A
C259        C788   1.375   1_455  A
C259        C773   1.453       .  S
C260        C787   1.375       .  A
C260        C261   1.361       .  A
C260        H263   1.083       .  S
C261        C262   1.384       .  A
C261        H264   1.083       .  S
C262        N786   1.379       .  A
O265        C281   1.277       .  A
C266        N288   1.450       .  S
C266        O282   1.269       .  A
C266        O279   1.271       .  A
O267        C280   1.274       .  A
O267       Cd274   2.101       .  S
O268        C286   1.278       .  A
O268       Cd277   2.061       .  S
O269       Cd273   2.039       .  S
O270        C281   1.265       .  A
O270       Cd273   2.075       .  S
Zn271       O441   2.060       .  S
Zn271       O282   2.002       .  S
Zn271       O284   1.980       .  S
Zn271       O276   1.869       .  S
O272        C283   1.284       .  A
O272       Cd277   2.119       .  S
Cd273       O275   2.039       .  S
Cd274       O454   2.096       .  S
Cd274       O287   2.121       .  S
Cd274       O276   2.024       .  S
O275        C285   1.268       .  A
O276       Cd449   2.036       .  S
O276       Cd277   2.018       .  S
Cd277       O279   2.096       .  S
O278        C285   1.286       .  A
C280        N346   1.457       .  S
C280        O284   1.261       .  A
C281        N325   1.459       .  S
C283        O445   1.271       .  A
C285        N332   1.438       .  S
C286        N318   1.447       .  S
C286        O287   1.279       .  A
N288        C292   1.356       .  A
N288        C289   1.369       .  A
C289        C290   1.393       .  A
C289        C326   1.513       .  S
C290        C291   1.382       .  A
C290        H293   1.083       .  S
C291        C292   1.381       .  A
C291        H294   1.083       .  S
C292        C296   1.489       .  S
O295        C311   1.265       .  A
O295       Zn301   2.012       .  S
C296        O312   1.266       .  A
C296        O309   1.266       .  A
O297        C310   1.271       .  A
O297       Cd304   2.076       .  S
O298        C844   1.269       .  A
O298       Cd307   2.045   1_655  S
O299        C313   1.277       .  A
O299       Cd831   2.063       .  S
O300        C311   1.274       .  A
O300       Cd303   2.087       .  S
Zn301       O312   2.000       .  S
Zn301       O490   1.961       .  S
Zn301       O306   1.877       .  S
O302        C841   1.271       .  A
O302       Cd307   2.030   1_655  S
Cd303       O827   2.062   1_455  S
Cd303      O1009   2.086   1_455  S
Cd303       O306   2.022       .  S
Cd304       O836   2.054   1_455  S
Cd304       O317   2.108   1_455  S
O305        C315   1.272       .  A
O305       Cd655   2.085       .  S
O306       Cd480   1.992       .  S
O306       Cd307   2.014       .  S
Cd307       O309   2.061       .  S
O308        C315   1.276       .  A
O308       Cd832   2.055       .  S
C310        C329   1.482       .  S
C310        O314   1.262       .  A
C311        C347   1.503       .  S
C313        C322   1.455       .  S
C313        O830   1.271       .  A
C315        C336   1.474       .  S
C316        O826   1.269       .  A
C316       O1021   1.281       .  A
O317        C668   1.282       .  A
N318        C322   1.350       .  A
N318        C319   1.372       .  A
C319        C320   1.399       .  A
C319        C333   1.508       .  S
C320        C321   1.364       .  A
C320        H323   1.078       .  S
C321        C322   1.368       .  A
C321        H852   1.083       .  S
H324        C849   1.083       .  S
N325        C329   1.366       .  A
N325        C326   1.377       .  A
C326        C327   1.396       .  A
C327        C328   1.370       .  A
C327        H330   1.083       .  S
C328        C329   1.372       .  A
C328        H331   1.083       .  S
N332        C336   1.346       .  A
N332        C333   1.366       .  A
C333        C334   1.393       .  A
C334        C335   1.382       .  A
C334        H337   1.083       .  S
C335        C336   1.379       .  A
C335        H866   1.083       .  S
H338        C863   1.083       .  S
N339        C343   1.361   1_565  A
N339        C340   1.372       .  A
C341        C516   1.378   1_545  A
C341        C342   1.380       .  A
C341        H344   1.082       .  S
C342        C519   1.389       .  A
C342        H345   1.082       .  S
N346        C350   1.368       .  A
N346        C347   1.379       .  A
C347        C348   1.383       .  A
C348        C349   1.370       .  A
C348        H351   1.082       .  S
C349        C350   1.382       .  A
C349        H352   1.082   1_545  S
C350        C519   1.490       .  S
N353        C357   1.374       .  A
N353        C530   1.374       .  A
N353        C383   1.459       .  S
C354        N705   1.374       .  A
C354        C355   1.382       .  A
C354        C412   1.496       .  S
C355        C356   1.373       .  A
C355        H358   1.083       .  S
C356        C709   1.383   1_455  A
C356        H359   1.080       .  S
C357        C532   1.383       .  A
C357        C364   1.497       .  S
N360        C364   1.363       .  A
N360        C361   1.351       .  A
N360        C492   1.432       .  S
C361        C362   1.378       .  A
C361        C459   1.469       .  S
C362        C363   1.378       .  A
C362        H365   1.082       .  S
C363        C364   1.383       .  A
C363        H366   1.073       .  S
O367        C383   1.272       .  A
O367       Zn373   2.043   1_554  S
C368        N420   1.474       .  S
C368        O384   1.269       .  A
C368        O381   1.301       .  A
O369        C382   1.275       .  A
O369       Cd376   2.064       .  S
O370        C388   1.292       .  A
O370       Cd379   2.185       .  S
O371        C385   1.274       .  A
O371       Cd375   2.038       .  S
O372        C383   1.275   1_556  A
O372       Cd375   2.094       .  S
Zn373       O384   1.981       .  S
Zn373       O378   1.889       .  S
O374        C385   1.296       .  A
O374       Cd379   2.196       .  S
Cd375       O378   1.975       .  S
Cd376       O380   2.009       .  S
Cd376       O389   1.993       .  S
O377        C387   1.266       .  A
O378       Cd379   1.993       .  S
Cd379       O381   2.224       .  S
O380        C387   1.259       .  A
C382        C438   1.489       .  S
C382        O386   1.268       .  A
C385        N390   1.456       .  S
C387        C431   1.441       .  S
N390        C394   1.356       .  A
N390        C391   1.351       .  A
C391        C392   1.382       .  A
C391        C428   1.438       .  S
C392        C393   1.365       .  A
C392        H395   1.082       .  S
C393        C394   1.379       .  A
C393        H396   1.083       .  S
C394        C418   1.448       .  S
O397        C413   1.264       .  A
O397       Zn403   1.968       .  S
C398        C424   1.481       .  S
C398        O414   1.268       .  A
C398        O411   1.276       .  A
O399        C412   1.279       .  A
O399       Cd406   2.088       .  S
O400        C418   1.257       .  A
O400       Cd409   2.013       .  S
O401        C415   1.291       .  A
O401       Cd405   2.192       .  S
O402        C413   1.298       .  A
O402       Cd405   2.212       .  S
Zn403       O416   2.019       .  S
Zn403       O408   1.884       .  S
O404       Cd409   1.992       .  S
Cd405       O407   2.191       .  S
Cd405       O408   1.995       .  S
Cd406       O410   2.054       .  S
Cd406       O408   1.983       .  S
O407        C417   1.296       .  A
Cd409       O411   2.064       .  S
O410        C417   1.278       .  A
C412        O416   1.269       .  A
C413        N434   1.472       .  S
C415        N515   1.448       .  S
C417        N427   1.454       .  S
C418        O419   1.269       .  A
N420        C952   1.378       .  A
N420        C421   1.367       .  A
C421        C950   1.376       .  A
C421        C963   1.453       .  S
C422        C949   1.376       .  A
C422        C423   1.358       .  A
C422        H425   1.082       .  S
C423        C424   1.381       .  A
C423        H426   1.083       .  S
C424        N948   1.378       .  A
N427        C431   1.353       .  A
N427        C428   1.351       .  A
C428        C429   1.383       .  A
C429        C430   1.363       .  A
C429        H432   1.082       .  S
C430        C431   1.379       .  A
C430        H433   1.083       .  S
N434        C966   1.378   1_455  A
N434        C435   1.366       .  A
C435        C964   1.375   1_455  A
C435        C949   1.453       .  S
C436        C963   1.375       .  A
C436        C437   1.361       .  A
C436        H439   1.083       .  S
C437        C438   1.384       .  A
C437        H440   1.083       .  S
C438        N962   1.378       .  A
O441        C457   1.277       .  A
C442        N464   1.450       .  S
C442        O458   1.269       .  A
C442        O455   1.271       .  A
O443        C456   1.274   1_554  A
O443       Cd450   2.100       .  S
O444        C462   1.278       .  A
O444       Cd453   2.061       .  S
O445       Cd449   2.039       .  S
O446        C457   1.264       .  A
O446       Cd449   2.075       .  S
Zn447       O458   2.002   1_554  S
Zn447       O460   1.980   1_554  S
Zn447       O452   1.869       .  S
O448        C459   1.284   1_556  A
O448       Cd453   2.120       .  S
Cd449       O451   2.038       .  S
Cd450       O463   2.121   1_554  S
Cd450       O452   2.024       .  S
O451        C461   1.268       .  A
O452       Cd453   2.018   1_554  S
Cd453       O455   2.096       .  S
O454        C461   1.286       .  A
C456        N522   1.457       .  S
C456        O460   1.261       .  A
C457        N501   1.459       .  S
C461        N508   1.438       .  S
C462        N494   1.447       .  S
C462        O463   1.279       .  A
N464        C468   1.355       .  A
N464        C465   1.369       .  A
C465        C466   1.393       .  A
C465        C502   1.514       .  S
C466        C467   1.382       .  A
C466        H469   1.083       .  S
C467        C468   1.381       .  A
C467        H470   1.083       .  S
C468        C472   1.489       .  S
O471        C487   1.265       .  A
O471       Zn477   2.013   1_556  S
C472        O488   1.267       .  A
C472        O485   1.266       .  A
O473        C486   1.271       .  A
O473       Cd480   2.075       .  S
O474       C1020   1.269   1_556  A
O474       Cd483   2.045   1_655  S
O475        C489   1.277       .  A
O475      Cd1007   2.061       .  S
O476        C487   1.273       .  A
O476       Cd479   2.085       .  S
Zn477       O488   2.000   1_554  S
Zn477       O482   1.876       .  S
O478       C1017   1.271       .  A
O478       Cd483   2.031   1_655  S
Cd479      O1003   2.061   1_455  S
Cd479       O657   2.085   1_456  S
Cd479       O482   2.021   1_556  S
Cd480      O1012   2.054   1_455  S
Cd480       O493   2.107   1_455  S
O481        C491   1.272       .  A
O481       Cd831   2.086       .  S
O482       Cd483   2.014   1_554  S
Cd483       O485   2.061       .  S
O484        C491   1.276       .  A
O484      Cd1008   2.054       .  S
C486        C505   1.482       .  S
C486        O490   1.262       .  A
C487        C523   1.503       .  S
C489        C498   1.454       .  S
C489       O1006   1.271       .  A
C491        C512   1.474       .  S
C492       O1002   1.269   1_554  A
C492        O669   1.281       .  A
O493        C844   1.281       .  A
N494        C498   1.350       .  A
N494        C495   1.372       .  A
C495        C496   1.399       .  A
C495        C509   1.508       .  S
C496        C497   1.364       .  A
C496        H499   1.077       .  S
C497        C498   1.368       .  A
C497       H1028   1.083       .  S
H500       C1025   1.083       .  S
N501        C505   1.365       .  A
N501        C502   1.377       .  A
C502        C503   1.396       .  A
C503        C504   1.370       .  A
C503        H506   1.083       .  S
C504        C505   1.372       .  A
C504        H507   1.083       .  S
N508        C512   1.346       .  A
N508        C509   1.366       .  A
C509        C510   1.392       .  A
C510        C511   1.382       .  A
C510        H513   1.083       .  S
C511        C512   1.379       .  A
C511       H1042   1.083       .  S
H514       C1039   1.083       .  S
N515        C519   1.361   1_565  A
N515        C516   1.372       .  A
C517        C518   1.379       .  A
C517        H520   1.082       .  S
C518        H521   1.082       .  S
N522        C526   1.368       .  A
N522        C523   1.379       .  A
C523        C524   1.383       .  A
C524        C525   1.370       .  A
C524        H527   1.082       .  S
C525        C526   1.382       .  A
C525        H528   1.082   1_545  S
N529        C533   1.374   1_455  A
N529        C559   1.459   1_455  S
C530        C531   1.382       .  A
C530        C588   1.496       .  S
C531        C532   1.373       .  A
C531        H534   1.083       .  S
C532        H535   1.080       .  S
C533        C540   1.496       .  S
N536        C540   1.362       .  A
N536        C537   1.351       .  A
N536        C668   1.432       .  S
C537        C538   1.377       .  A
C537        C635   1.469       .  S
C538        C539   1.378       .  A
C538        H541   1.082       .  S
C539        C540   1.382       .  A
C539        H542   1.073       .  S
O543        C559   1.272       .  A
O543       Zn549   2.043       .  S
C544        N596   1.474       .  S
C544        O560   1.269       .  A
C544        O557   1.301   1_455  A
O545        C558   1.275       .  A
O545       Cd552   2.064       .  S
O546        C564   1.292       .  A
O546       Cd555   2.184       .  S
O547        C561   1.274       .  A
O547       Cd551   2.039       .  S
O548        C559   1.275       .  A
O548       Cd551   2.094       .  S
Zn549       O560   1.982   1_655  S
Zn549       O738   2.017       .  S
Zn549       O554   1.889       .  S
O550        C561   1.296       .  A
O550       Cd555   2.195       .  S
Cd551       O729   2.044       .  S
Cd551       O554   1.976       .  S
Cd552       O556   2.009       .  S
Cd552       O565   1.994   1_554  S
Cd552       O906   1.964   1_554  S
O553        C563   1.266       .  A
O553       Cd903   2.044   1_554  S
O554       Cd728   1.963       .  S
O554       Cd555   1.993       .  S
Cd555       O557   2.224       .  S
O556        C563   1.259       .  A
C558        C614   1.489       .  S
C558        O562   1.268       .  A
C561        N566   1.456       .  S
O562       Zn901   2.017   1_554  S
C563        C607   1.440       .  S
C564        C868   1.487       .  S
C564        O741   1.260       .  A
O565        C916   1.260       .  A
N566        C570   1.356       .  A
N566        C567   1.351       .  A
C567        C568   1.382       .  A
C567        C604   1.438       .  S
C568        C569   1.366       .  A
C568        H571   1.082       .  S
C569        C570   1.379       .  A
C569        H572   1.083       .  S
C570        C594   1.448       .  S
O573        C589   1.264       .  A
O573       Zn579   1.968       .  S
C574        C600   1.481       .  S
C574        O590   1.268       .  A
C574        O587   1.276       .  A
O575        C588   1.279       .  A
O575       Cd582   2.089       .  S
O576        C594   1.257       .  A
O576       Cd585   2.014       .  S
O577        C591   1.291   1_554  A
O577       Cd581   2.192       .  S
O578        C589   1.298       .  A
O578       Cd581   2.212       .  S
Zn579       O942   2.004   1_554  S
Zn579       O592   2.019       .  S
Zn579       O584   1.885       .  S
O580        C767   1.261       .  A
O580       Cd585   1.993       .  S
Cd581       O583   2.192       .  S
Cd581       O584   1.995       .  S
Cd582       O586   2.054       .  S
Cd582       O947   2.059   1_554  S
Cd582       O584   1.984       .  S
O583        C593   1.296       .  A
O584       Cd937   1.954   1_554  S
Cd585       O587   2.065       .  S
Cd585       O760   1.954       .  S
O586        C593   1.278       .  A
C588        O592   1.269       .  A
C589        N610   1.472       .  S
O590       Zn755   2.003       .  S
C591        N691   1.448       .  S
C591        O932   1.261       .  A
C593        N603   1.454       .  S
C594        O595   1.269       .  A
O595       Cd758   2.060       .  S
N596        C597   1.367       .  A
C598        C599   1.357       .  A
C598        H601   1.082       .  S
C599        C600   1.381       .  A
C599        H602   1.083       .  S
N603        C607   1.353       .  A
N603        C604   1.351       .  A
C604        C605   1.383       .  A
C605        C606   1.363       .  A
C605        H608   1.082       .  S
C606        C607   1.378       .  A
C606        H609   1.083       .  S
N610        C611   1.366       .  A
C612        C613   1.361       .  A
C612        H615   1.083       .  S
C613        C614   1.384       .  A
C613        H616   1.083       .  S
O617        C633   1.277       .  A
O617       Zn975   2.060       .  S
C618        N640   1.449       .  S
C618        O634   1.269       .  A
C618        O631   1.271       .  A
O619        C632   1.274       .  A
O619       Cd626   2.101       .  S
O620        C638   1.278       .  A
O620       Cd629   2.061       .  S
O621        C987   1.271       .  A
O621       Cd625   2.040       .  S
O622        C633   1.265       .  A
O622       Cd625   2.075       .  S
Zn623       O793   2.060       .  S
Zn623       O634   2.002       .  S
Zn623       O636   1.980       .  S
Zn623       O628   1.869       .  S
O624        C635   1.284       .  A
O624       Cd629   2.119       .  S
Cd625       O627   2.038       .  S
Cd625       O980   2.036       .  S
Cd626       O806   2.097       .  S
Cd626       O639   2.122       .  S
Cd626       O628   2.023       .  S
O627        C637   1.268       .  A
O628       Cd801   2.036       .  S
O628       Cd629   2.018       .  S
Cd629       O631   2.096       .  S
O630        C637   1.286       .  A
O630       Cd978   2.096       .  S
C632        N698   1.457       .  S
C632        O636   1.261       .  A
C633        N677   1.459       .  S
C635        O797   1.271       .  A
C637        N684   1.438       .  S
C638        N670   1.447       .  S
C638        O639   1.279       .  A
N640        C644   1.355       .  A
N640        C641   1.369       .  A
C641        C642   1.393       .  A
C641        C678   1.514       .  S
C642        C643   1.382       .  A
C642        H645   1.083       .  S
C643        C644   1.381       .  A
C643        H646   1.083       .  S
C644        C648   1.489       .  S
O647        C663   1.265       .  A
O647       Zn653   2.012       .  S
C648        O664   1.267       .  A
C648        O661   1.266       .  A
O649        C662   1.271       .  A
O649       Cd656   2.076       .  S
O650       Cd659   2.044       .  S
O651        C665   1.277       .  A
O652        C663   1.274       .  A
O652       Cd655   2.086       .  S
Zn653       O664   2.001       .  S
Zn653       O842   1.960       .  S
Zn653       O658   1.877       .  S
O654       Cd659   2.030       .  S
Cd655       O658   2.022       .  S
Cd656       O669   2.107       .  S
Cd656      O1010   1.992   1_554  S
O657        C667   1.272       .  A
O658       Cd832   1.993       .  S
O658       Cd659   2.014       .  S
Cd659       O661   2.061       .  S
O660        C667   1.276       .  A
C662        C681   1.482       .  S
C662        O666   1.262       .  A
C663        C699   1.503       .  S
C665        C674   1.454       .  S
O666      Zn1005   1.961       .  S
C667        C688   1.474       .  S
N670        C674   1.350       .  A
N670        C671   1.372       .  A
C671        C672   1.399       .  A
C671        C685   1.508       .  S
C672        C673   1.364       .  A
C672        H675   1.077       .  S
C673        C674   1.368       .  A
N677        C681   1.366       .  A
N677        C678   1.377       .  A
C678        C679   1.396       .  A
C679        C680   1.370       .  A
C679        H682   1.083       .  S
C680        C681   1.372       .  A
C680        H683   1.083       .  S
N684        C688   1.346       .  A
N684        C685   1.366       .  A
C685        C686   1.393       .  A
C686        C687   1.382       .  A
C686        H689   1.083       .  S
C687        C688   1.379       .  A
N691        C695   1.361   1_565  A
N691        C692   1.372       .  A
C692       C1045   1.378   1_565  A
C692        C916   1.488       .  S
C693        C868   1.378   1_545  A
C693        C694   1.379       .  A
C693        H696   1.082       .  S
C694        C871   1.389       .  A
C694        H697   1.082       .  S
C695       C1046   1.389       .  A
C695       C1054   1.490       .  S
N698        C702   1.368       .  A
N698        C699   1.379       .  A
C699        C700   1.383       .  A
C700        C701   1.370       .  A
C700        H703   1.082       .  S
C701        C702   1.382       .  A
C701        H704   1.082   1_545  S
C702        C871   1.490       .  S
N705        C709   1.374   1_455  A
N705        C735   1.459   1_455  S
C706        C707   1.382       .  A
C706        C764   1.496       .  S
C707        C708   1.373       .  A
C707        H710   1.083       .  S
C708        H711   1.080       .  S
C709        C716   1.496       .  S
N712        C716   1.362       .  A
N712        C713   1.351       .  A
N712        C844   1.432       .  S
C713        C714   1.378       .  A
C713        C811   1.468       .  S
C714        C715   1.378       .  A
C714        H717   1.082       .  S
C715        C716   1.382       .  A
C715        H718   1.073       .  S
O719        C735   1.272       .  A
O719       Zn725   2.043       .  S
C720        N772   1.474       .  S
C720        O736   1.269       .  A
C720        O733   1.301   1_455  A
O721        C734   1.275       .  A
O721       Cd728   2.064       .  S
O722        C740   1.292       .  A
O722       Cd731   2.185       .  S
O723        C737   1.274       .  A
O723       Cd727   2.040       .  S
O724        C735   1.275       .  A
O724       Cd727   2.094       .  S
Zn725       O736   1.982   1_655  S
Zn725       O914   2.017       .  S
Zn725       O730   1.889       .  S
O726        C737   1.296       .  A
O726       Cd731   2.196       .  S
Cd727       O905   2.045       .  S
Cd727       O730   1.976       .  S
Cd728       O732   2.009       .  S
Cd728       O741   1.993       .  S
O729        C739   1.266       .  A
O730       Cd904   1.964       .  S
O730       Cd731   1.993       .  S
Cd731       O733   2.225       .  S
O732        C739   1.259       .  A
C734        C790   1.489       .  S
C734        O738   1.268       .  A
C737        N742   1.456       .  S
C739        C783   1.440       .  S
C740       C1044   1.488       .  S
C740        O917   1.260       .  A
N742        C746   1.356       .  A
N742        C743   1.351       .  A
C743        C744   1.382       .  A
C743        C780   1.438       .  S
C744        C745   1.365       .  A
C744        H747   1.082       .  S
C745        C746   1.379       .  A
C745        H748   1.083       .  S
C746        C770   1.448       .  S
O749        C765   1.264       .  A
O749       Zn755   1.967       .  S
C750        C776   1.481       .  S
C750        O766   1.268       .  A
C750        O763   1.276       .  A
O751        C764   1.279       .  A
O751       Cd758   2.088       .  S
O752        C770   1.257       .  A
O752       Cd761   2.014       .  S
O753        C767   1.292       .  A
O753       Cd757   2.193       .  S
O754        C765   1.298       .  A
O754       Cd757   2.213       .  S
Zn755       O768   2.019       .  S
Zn755       O760   1.885       .  S
O756        C943   1.261       .  A
O756       Cd761   1.992       .  S
Cd757       O759   2.192       .  S
Cd757       O760   1.995       .  S
Cd758       O762   2.054       .  S
Cd758       O760   1.984       .  S
O759        C769   1.297       .  A
Cd761       O763   2.064       .  S
Cd761       O936   1.954       .  S
O762        C769   1.278       .  A
C764        O768   1.269       .  A
C765        N786   1.472       .  S
O766       Zn931   2.004       .  S
C767        N867   1.449       .  S
C769        N779   1.454       .  S
C770        O771   1.269       .  A
O771       Cd934   2.059       .  S
N772        C773   1.367       .  A
C774        C775   1.358       .  A
C774        H777   1.082       .  S
C775        C776   1.381       .  A
C775        H778   1.083       .  S
N779        C783   1.353       .  A
N779        C780   1.351       .  A
C780        C781   1.383       .  A
C781        C782   1.363       .  A
C781        H784   1.082       .  S
C782        C783   1.379       .  A
C782        H785   1.083       .  S
N786        C787   1.366       .  A
C788        C789   1.361       .  A
C788        H791   1.083       .  S
C789        C790   1.384       .  A
C789        H792   1.083       .  S
O793        C809   1.277       .  A
C794        N816   1.449       .  S
C794        O810   1.269       .  A
C794        O807   1.271       .  A
O795        C808   1.274       .  A
O795       Cd802   2.100       .  S
O796        C814   1.278       .  A
O796       Cd805   2.061       .  S
O797       Cd801   2.039       .  S
O798        C809   1.264       .  A
O798       Cd801   2.075       .  S
Zn799       O969   2.060       .  S
Zn799       O810   2.002       .  S
Zn799       O812   1.980       .  S
Zn799       O804   1.869       .  S
O800        C811   1.284       .  A
O800       Cd805   2.119       .  S
Cd801       O803   2.038       .  S
Cd802       O982   2.096       .  S
Cd802       O815   2.121       .  S
Cd802       O804   2.023       .  S
O803        C813   1.268       .  A
O804       Cd977   2.036       .  S
O804       Cd805   2.018       .  S
Cd805       O807   2.095       .  S
O806        C813   1.286       .  A
C808        N874   1.457       .  S
C808        O812   1.261       .  A
C809        N853   1.459       .  S
C811        O973   1.271       .  A
C813        N860   1.438       .  S
C814        N846   1.447       .  S
C814        O815   1.279       .  A
N816        C820   1.355       .  A
N816        C817   1.369       .  A
C817        C818   1.393       .  A
C817        C854   1.513       .  S
C818        C819   1.382       .  A
C818        H821   1.083       .  S
C819        C820   1.381       .  A
C819        H822   1.083       .  S
C820        C824   1.489       .  S
O823        C839   1.266       .  A
O823       Zn829   2.013       .  S
C824        O840   1.267       .  A
C824        O837   1.266       .  A
O825        C838   1.271       .  A
O825       Cd832   2.076       .  S
O826       Cd835   2.044       .  S
O827        C841   1.277       .  A
O828        C839   1.274       .  A
O828       Cd831   2.086       .  S
Zn829       O840   2.001       .  S
Zn829      O1018   1.961       .  S
Zn829       O834   1.877       .  S
O830       Cd835   2.030       .  S
Cd831       O834   2.022       .  S
Cd832       O845   2.108       .  S
O833        C843   1.272       .  A
O834      Cd1008   1.993       .  S
O834       Cd835   2.013       .  S
Cd835       O837   2.060       .  S
O836        C843   1.276       .  A
C838        C857   1.482       .  S
C838        O842   1.262       .  A
C839        C875   1.503       .  S
C841        C850   1.454       .  S
C843        C864   1.474       .  S
N846        C850   1.350       .  A
N846        C847   1.372       .  A
C847        C848   1.399       .  A
C847        C861   1.508       .  S
C848        C849   1.364       .  A
C848        H851   1.077       .  S
C849        C850   1.368       .  A
N853        C857   1.366       .  A
N853        C854   1.377       .  A
C854        C855   1.396       .  A
C855        C856   1.370       .  A
C855        H858   1.083       .  S
C856        C857   1.372       .  A
C856        H859   1.083       .  S
N860        C864   1.346       .  A
N860        C861   1.366       .  A
C861        C862   1.392       .  A
C862        C863   1.382       .  A
C862        H865   1.083       .  S
C863        C864   1.379       .  A
N867        C871   1.361   1_565  A
N867        C868   1.372       .  A
C869       C1044   1.378   1_545  A
C869        C870   1.379       .  A
C869        H872   1.082       .  S
C870       C1047   1.389       .  A
C870        H873   1.082       .  S
N874        C878   1.368       .  A
N874        C875   1.379       .  A
C875        C876   1.383       .  A
C876        C877   1.370       .  A
C876        H879   1.082       .  S
C877        C878   1.382       .  A
C877        H880   1.082   1_545  S
C878       C1047   1.490       .  S
N881        C885   1.374   1_455  A
N881        C911   1.459   1_455  S
C882        C883   1.382       .  A
C882        C940   1.496       .  S
C883        C884   1.373       .  A
C883        H886   1.083       .  S
C884        H887   1.080       .  S
C885        C892   1.496       .  S
N888        C892   1.363       .  A
N888        C889   1.351       .  A
N888       C1020   1.432       .  S
C889        C890   1.378       .  A
C889        C987   1.469       .  S
C890        C891   1.378       .  A
C890        H893   1.082       .  S
C891        C892   1.383       .  A
C891        H894   1.074       .  S
O895        C911   1.272       .  A
O895       Zn901   2.044   1_554  S
C896        N948   1.474       .  S
C896        O912   1.269       .  A
C896        O909   1.301   1_455  A
O897        C910   1.275       .  A
O897       Cd904   2.064       .  S
O898        C916   1.292       .  A
O898       Cd907   2.186       .  S
O899        C913   1.274       .  A
O899       Cd903   2.038       .  S
O900        C911   1.275   1_556  A
O900       Cd903   2.094       .  S
Zn901       O912   1.981   1_655  S
Zn901       O906   1.889       .  S
O902        C913   1.296       .  A
O902       Cd907   2.196       .  S
Cd903       O906   1.976       .  S
Cd904       O908   2.009       .  S
Cd904       O917   1.993       .  S
O905        C915   1.266       .  A
O906       Cd907   1.994       .  S
Cd907       O909   2.225       .  S
O908        C915   1.259       .  A
C910        C966   1.489       .  S
C910        O914   1.268       .  A
C913        N918   1.456       .  S
C915        C959   1.441       .  S
N918        C922   1.355       .  A
N918        C919   1.351       .  A
C919        C920   1.382       .  A
C919        C956   1.438       .  S
C920        C921   1.365       .  A
C920        H923   1.082       .  S
C921        C922   1.379       .  A
C921        H924   1.083       .  S
C922        C946   1.447       .  S
O925        C941   1.264       .  A
O925       Zn931   1.967       .  S
C926        C952   1.481       .  S
C926        O942   1.268       .  A
C926        O939   1.276       .  A
O927        C940   1.279       .  A
O927       Cd934   2.088       .  S
O928        C946   1.257       .  A
O928       Cd937   2.013       .  S
O929        C943   1.292       .  A
O929       Cd933   2.193       .  S
O930        C941   1.298       .  A
O930       Cd933   2.213       .  S
Zn931       O944   2.019       .  S
Zn931       O936   1.885       .  S
O932       Cd937   1.992       .  S
Cd933       O935   2.192       .  S
Cd933       O936   1.995       .  S
Cd934       O938   2.053       .  S
Cd934       O936   1.984       .  S
O935        C945   1.297       .  A
Cd937       O939   2.065       .  S
O938        C945   1.278       .  A
C940        O944   1.269       .  A
C941        N962   1.472       .  S
C943       N1043   1.448       .  S
C945        N955   1.454       .  S
C946        O947   1.269       .  A
N948        C949   1.367       .  A
C950        C951   1.358       .  A
C950        H953   1.082       .  S
C951        C952   1.381       .  A
C951        H954   1.083       .  S
N955        C959   1.353       .  A
N955        C956   1.350       .  A
C956        C957   1.383       .  A
C957        C958   1.363       .  A
C957        H960   1.082       .  S
C958        C959   1.379       .  A
C958        H961   1.083       .  S
N962        C963   1.366       .  A
C964        C965   1.361       .  A
C964        H967   1.083       .  S
C965        C966   1.384       .  A
C965        H968   1.083       .  S
O969        C985   1.277       .  A
C970        N992   1.450       .  S
C970        O986   1.269       .  A
C970        O983   1.271       .  A
O971        C984   1.274   1_554  A
O971       Cd978   2.100       .  S
O972        C990   1.278       .  A
O972       Cd981   2.062       .  S
O973       Cd977   2.039       .  S
O974        C985   1.264       .  A
O974       Cd977   2.075       .  S
Zn975       O986   2.002   1_554  S
Zn975       O988   1.979   1_554  S
Zn975       O980   1.870       .  S
O976        C987   1.284   1_556  A
O976       Cd981   2.120       .  S
Cd977       O979   2.038       .  S
Cd978       O991   2.121   1_554  S
Cd978       O980   2.024       .  S
O979        C989   1.268       .  A
O980       Cd981   2.018   1_554  S
Cd981       O983   2.096       .  S
O982        C989   1.286       .  A
C984       N1050   1.456       .  S
C984        O988   1.261       .  A
C985       N1029   1.459       .  S
C989       N1036   1.437       .  S
C990       N1022   1.447       .  S
C990        O991   1.279       .  A
N992        C996   1.356       .  A
N992        C993   1.369       .  A
C993        C994   1.393       .  A
C993       C1030   1.513       .  S
C994        C995   1.382       .  A
C994        H997   1.083       .  S
C995        C996   1.381       .  A
C995        H998   1.083       .  S
C996       C1000   1.489       .  S
O999       C1015   1.266       .  A
O999      Zn1005   2.014   1_556  S
C1000      O1016   1.266       .  A
C1000      O1013   1.266       .  A
O1001      C1014   1.271       .  A
O1001     Cd1008   2.076       .  S
O1002     Cd1011   2.045       .  S
O1003      C1017   1.277       .  A
O1004      C1015   1.274       .  A
O1004     Cd1007   2.086       .  S
Zn1005     O1016   2.000   1_554  S
Zn1005     O1010   1.877   1_554  S
O1006     Cd1011   2.031       .  S
Cd1007     O1010   2.021       .  S
Cd1008     O1021   2.107       .  S
O1009      C1019   1.272       .  A
O1010     Cd1011   2.014       .  S
Cd1011     O1013   2.061       .  S
O1012      C1019   1.275       .  A
C1014      C1033   1.482       .  S
C1014      O1018   1.262       .  A
C1015      C1051   1.504       .  S
C1017      C1026   1.454       .  S
C1019      C1040   1.474       .  S
N1022      C1026   1.350       .  A
N1022      C1023   1.372       .  A
C1023      C1024   1.399       .  A
C1023      C1037   1.508       .  S
C1024      C1025   1.364       .  A
C1024      H1027   1.078       .  S
C1025      C1026   1.368       .  A
N1029      C1033   1.366       .  A
N1029      C1030   1.377       .  A
C1030      C1031   1.396       .  A
C1031      C1032   1.370       .  A
C1031      H1034   1.083       .  S
C1032      C1033   1.372       .  A
C1032      H1035   1.083       .  S
N1036      C1040   1.346       .  A
N1036      C1037   1.366       .  A
C1037      C1038   1.392       .  A
C1038      C1039   1.382       .  A
C1038      H1041   1.083       .  S
C1039      C1040   1.379       .  A
N1043      C1047   1.361   1_565  A
N1043      C1044   1.372       .  A
C1045      C1046   1.380       .  A
C1045      H1048   1.082       .  S
C1046      H1049   1.082       .  S
N1050      C1054   1.368       .  A
N1050      C1051   1.379       .  A
C1051      C1052   1.384       .  A
C1052      C1053   1.370       .  A
C1052      H1055   1.082       .  S
C1053      C1054   1.382       .  A
C1053      H1056   1.082   1_545  S
