geometry optimzed in LAMMPS
_audit_creation_date              2020-12-01 
_audit_creation_method            'lammps2cif' 
_symmetry_space_group_name_H-M    'P1' 
_symmetry_Int_Tables_number       1 
_symmetry_cell_setting            triclinic 
loop_ 
_symmetry_equiv_pos_as_xyz 
  x,y,z 
_cell_length_a                    42.38172534 
_cell_length_b                    42.47574254579342 
_cell_length_c                    42.87456021071194 
_cell_angle_alpha                 90.07927872132251 
_cell_angle_beta                  90.15874175628082 
_cell_angle_gamma                 89.96316926857148 
loop_ 
_atom_site_label 
_atom_site_type_symbol 
_atom_site_fract_x 
_atom_site_fract_y 
_atom_site_fract_z 
_atom_site_charge 
N1          N  0.15186016  0.81016964  0.49471855    -0.02900
C2          C  0.14727189  0.79186072  0.52062446    -0.00300
C3          C  0.14158243  0.76092206  0.51236019    -0.23200
C4          C  0.14475205  0.75899972  0.48092993    -0.23400
C5          C  0.15191780  0.78889712  0.47068454    -0.00400
H6          H  0.13999785  0.74097388  0.52798338     0.13400
H7          H  0.14519625  0.73746624  0.46739535     0.13400
N8          N  0.84893598  0.11873894  0.50368058    -0.02900
C9          C  0.82798826  0.12209521  0.52765340    -0.00300
C10         C  0.79732504  0.12291102  0.51687008    -0.23200
C11         C  0.79883983  0.12091897  0.48528555    -0.23400
C12         C  0.83041028  0.11929048  0.47749095    -0.00400
H13         H  0.77626609  0.12745207  0.53038849     0.13400
H14         H  0.77919151  0.12428907  0.46943359     0.13400
N15         N  0.84441271  0.85403650  0.50065081    -0.02900
C16         C  0.82219573  0.85515320  0.52359233    -0.00300
C17         C  0.79315912  0.86377933  0.51173459    -0.23200
C18         C  0.79673918  0.86638406  0.48030766    -0.23400
C19         C  0.82776075  0.85889655  0.47381251    -0.00400
H20         H  0.77085626  0.86391672  0.52396334     0.13400
H21         H  0.77759156  0.86835591  0.46365453     0.13400
N22         N  0.51746332  0.81388422  0.13761869    -0.02900
C23         C  0.49010457  0.79770311  0.14233376    -0.00300
C24         C  0.49595256  0.76613533  0.14730500    -0.23200
C25         C  0.52779932  0.76233108  0.14648088    -0.23400
C26         C  0.54055067  0.79169044  0.14104364    -0.00400
H27         H  0.47896189  0.74840422  0.15407952     0.13400
H28         H  0.54048288  0.74111409  0.15273844     0.13400
N29         N  0.88561823  0.48276911  0.17003980    -0.02900
C30         C  0.88692001  0.50663167  0.19148311    -0.00300
C31         C  0.89378985  0.49554669  0.22091086    -0.23200
C32         C  0.89520305  0.46376071  0.21854655    -0.23400
C33         C  0.88852946  0.45616595  0.18783480    -0.00400
H34         H  0.89436644  0.50891619  0.24242048     0.13400
H35         H  0.89594523  0.44774590  0.23817412     0.13400
N36         N  0.88211701  0.48612684  0.83400681    -0.02900
C37         C  0.88559055  0.45938978  0.81655305    -0.00300
C38         C  0.89127861  0.46649211  0.78566436    -0.23200
C39         C  0.88909962  0.49821612  0.78293640    -0.23400
C40         C  0.88267060  0.50976563  0.81235074    -0.00400
H41         H  0.89176260  0.45007876  0.76631380     0.13400
H42         H  0.88817353  0.51102618  0.76113991     0.13400
N43         N  0.52334660  0.11507672  0.83092126    -0.02900
C44         C  0.50253186  0.11396930  0.80655560    -0.00300
C45         C  0.51798942  0.10923619  0.77866201    -0.23200
C46         C  0.54939035  0.10921609  0.78531534    -0.23400
C47         C  0.55231995  0.11430358  0.81702859    -0.00400
H48         H  0.50776335  0.10977210  0.75550283     0.13400
H49         H  0.56808025  0.11052301  0.76818793     0.13400
N50         N  0.18925647  0.47879008  0.86553575    -0.02900
C51         C  0.20780206  0.50510074  0.86551299    -0.00300
C52         C  0.23938593  0.49718614  0.86392505    -0.23200
C53         C  0.24093161  0.46531904  0.86203225    -0.23400
C54         C  0.21028211  0.45452082  0.86259361    -0.00400
H55         H  0.25907659  0.51314901  0.86107555     0.13400
H56         H  0.26202313  0.45156621  0.85785792     0.13400
N57         N  0.50860138  0.81722682  0.85957547    -0.02900
C58         C  0.52982162  0.79309073  0.85841368    -0.00300
C59         C  0.51496379  0.76427407  0.85979121    -0.23200
C60         C  0.48344926  0.77028892  0.86037261    -0.23400
C61         C  0.47994363  0.80259759  0.85886874    -0.00400
H62         H  0.52569831  0.74136663  0.85657582     0.13400
H63         H  0.46507275  0.75288795  0.85703491     0.13400
N64         N  0.01886256  0.34820374  0.32668027    -0.02900
C65         C  0.99063979  0.34907524  0.31135474    -0.00300
C66         C  0.99502543  0.35256795  0.27962982    -0.23200
C67         C  0.02669543  0.35196772  0.27460661    -0.23400
C68         C  0.04078137  0.34848795  0.30343388    -0.00400
H69         H  0.97710468  0.35068971  0.26166682     0.13400
H70         H  0.03796579  0.34987602  0.25207027     0.13400
O71         O  0.31457028  0.20436039  0.28069403    -0.87700
C72         C  0.28875162  0.19780606  0.18814938     0.88300
Mg73       Mg  0.28187795  0.19657568  0.31847526     1.58100
O74         O  0.30095433  0.27494800  0.21613170    -0.87500
O75         O  0.34772510  0.23933638  0.26285220    -0.74800
C76         C  0.15807859  0.28388946  0.28334637     0.93300
O77         O  0.26200456  0.15831200  0.24984623    -0.74600
O78         O  0.16495808  0.25799753  0.29657850    -0.82100
Mg79       Mg  0.31482500  0.16845125  0.24449879     1.58000
C80         C  0.23322407  0.34340885  0.19290197     0.93300
O81         O  0.36803178  0.17045590  0.23610682    -0.80400
H82         H  0.32864118  0.30809935  0.23484296    -0.05700
C83         C  0.20929652  0.24467707  0.21463502     0.88200
O84         O  0.27334707  0.24973164  0.32476324    -0.74900
O85         O  0.30587589  0.20466886  0.21047094    -0.87700
O86         O  0.25255007  0.32384125  0.18108912    -0.80500
C87         C  0.32525720  0.26837228  0.13684038     0.93400
C88         C  0.38651145  0.18231105  0.21590590     0.93200
Mg89       Mg  0.23014129  0.29958440  0.25525881     1.58000
O90         O  0.17695977  0.29716596  0.26435304    -0.80400
O91         O  0.28325451  0.30928598  0.24982460    -0.74600
O92         O  0.33861507  0.25042572  0.15674735    -0.80500
O93         O  0.32475870  0.13001623  0.28004076    -0.82200
O94         O  0.20601402  0.21658334  0.34238357    -0.80500
C95         C  0.30531543  0.29791822  0.23329088     0.87700
O96         O  0.23891608  0.26317119  0.28928458    -0.87600
O97         O  0.23077682  0.26374628  0.21932574    -0.87800
O98         O  0.19829790  0.22778956  0.23645350    -0.74800
Mg99       Mg  0.33953442  0.24271419  0.20978850     1.58000
O100        O  0.29832453  0.28050413  0.14210547    -0.82200
H101        H  0.34575254  0.22617402  0.30832250    -0.05900
O102        O  0.24485507  0.19255893  0.28377363    -0.87500
H103        H  0.21696838  0.15921388  0.26575317    -0.05700
H104        H  0.25584871  0.29402007  0.32034799    -0.05900
C105        C  0.24027944  0.16948388  0.26685465     0.87600
C106        C  0.33642383  0.22309615  0.28502287     0.88200
C107        C  0.25569827  0.27004835  0.31183752     0.88300
H108        H  0.20019921  0.24171820  0.19123202    -0.05900
O109        O  0.27107646  0.21817928  0.17533725    -0.74900
Mg110      Mg  0.20592179  0.22432332  0.28945812     1.58000
H111        H  0.28829254  0.17378772  0.17978318    -0.05900
C112        C  0.31356836  0.12497837  0.30707071     0.93300
O113        O  0.24630405  0.18663895  0.35734890    -0.82100
C114        C  0.21894100  0.19808233  0.36205037     0.93300
O115        O  0.37974732  0.20785361  0.20190868    -0.82100
Mg116      Mg  0.26357088  0.27139812  0.18181507     1.58200
O117        O  0.29508544  0.14443721  0.32033718    -0.80500
O118        O  0.22012911  0.33823283  0.21912028    -0.82200
N119        N  0.34752058  0.98312143  0.36850595    -0.02900
C120        C  0.33039719  0.00986489  0.37374298    -0.00300
C121        C  0.29953788  0.00267255  0.38107331    -0.23200
C122        C  0.29636812  0.97100376  0.37770343    -0.23400
C123        C  0.32558018  0.95956660  0.36896755    -0.00400
H124        H  0.28013727  0.01914920  0.38312801     0.13400
H125        H  0.27419362  0.95837201  0.37769765     0.13400
O126        O  0.29008558  0.76865769  0.19964298    -0.87700
C127        C  0.28827656  0.67314597  0.21937012     0.88300
Mg128      Mg  0.30473326  0.80465934  0.23289712     1.58100
O129        O  0.21266030  0.70798893  0.21231864    -0.87500
O130        O  0.25212330  0.75477035  0.16758713    -0.74800
C131        C  0.21721029  0.77084864  0.35494767     0.93300
O132        O  0.33543804  0.73019525  0.24681418    -0.74600
O133        O  0.24270925  0.78484651  0.34792894    -0.82100
Mg134      Mg  0.32095520  0.72880553  0.19513183     1.58000
C135        C  0.15018590  0.68662302  0.28713620     0.93300
O136        O  0.31345463  0.72538722  0.14248391    -0.80400
H137        H  0.17976558  0.73140678  0.18815278    -0.05700
C138        C  0.24982706  0.70030499  0.30056749     0.88200
O139        O  0.25253304  0.81543973  0.24375395    -0.74900
O140        O  0.28229114  0.69753461  0.20499809    -0.87700
O141        O  0.16333157  0.67263858  0.26423356    -0.80500
C142        C  0.21371439  0.62846789  0.18561555     0.93400
C143        C  0.30328723  0.70253599  0.12613116     0.93200
Mg144      Mg  0.19870703  0.74638639  0.28505547     1.58000
O145        O  0.20634342  0.74921046  0.33755194    -0.80400
O146        O  0.18380016  0.74490957  0.23344260    -0.74600
O147        O  0.23106334  0.64892237  0.17239156    -0.80500
O148        O  0.36040336  0.76163991  0.18367491    -0.82200
O149        O  0.28715314  0.82666369  0.30768279    -0.80500
C150        C  0.19146681  0.72786723  0.21031230     0.87700
O151        O  0.23713756  0.77799770  0.27487185    -0.87600
O152        O  0.23026508  0.70728182  0.28027811    -0.87800
O153        O  0.26831793  0.72077049  0.31226634    -0.74800
Mg154      Mg  0.24348263  0.70102204  0.17289947     1.58000
O155        O  0.20218461  0.63311121  0.21264999    -0.82200
H156        H  0.26886531  0.79948328  0.17125217    -0.05900
O157        O  0.30694897  0.76752614  0.26772458    -0.87500
H158        H  0.33943991  0.74376241  0.29207842    -0.05700
H159        H  0.20828486  0.81284519  0.26170913    -0.05900
C160        C  0.32789657  0.74740637  0.26985608     0.87600
C161        C  0.27053278  0.77540650  0.17923800     0.88200
C162        C  0.23153748  0.80245394  0.26040254     0.88300
H163        H  0.25151867  0.67614089  0.30828566    -0.05900
O164        O  0.26779004  0.66034585  0.23667195    -0.74900
Mg165      Mg  0.27598846  0.77442116  0.30693772     1.58000
H166        H  0.31151406  0.66279743  0.21757615    -0.05900
C167        C  0.37116123  0.78730812  0.19450543     0.93300
O168        O  0.31914703  0.84212155  0.26976350    -0.82100
C169        C  0.30650117  0.84648420  0.29645368     0.93300
O170        O  0.27718527  0.68941266  0.13258797    -0.82100
Mg171      Mg  0.21587402  0.67113751  0.24782077     1.58200
O172        O  0.35756450  0.80194680  0.21681922    -0.80500
O173        O  0.16008374  0.71278986  0.29749594    -0.82200
O174        O  0.81051902  0.26669643  0.23059212    -0.87700
C175        C  0.77962152  0.25968346  0.32155797     0.88300
Mg176      Mg  0.78156639  0.28354820  0.19181959     1.58100
O177        O  0.79407457  0.18778441  0.28254832    -0.87500
O178        O  0.84352289  0.23019271  0.24599494    -0.74800
C179        C  0.65758192  0.19154249  0.19946816     0.93300
O180        O  0.75671537  0.30792983  0.26368185    -0.74600
O181        O  0.66366882  0.21910322  0.18954267    -0.82100
Mg182      Mg  0.80924071  0.29601063  0.27141630     1.58000
C183        C  0.71853284  0.12242977  0.28721600     0.93300
O184        O  0.86125243  0.29136410  0.28224484    -0.80400
H185        H  0.82290810  0.15892315  0.25928773    -0.05700
C186        C  0.70151420  0.22070392  0.27822917     0.88200
O187        O  0.77458201  0.23305651  0.17405553    -0.74900
O188        O  0.79809296  0.25592775  0.29975385    -0.87700
O189        O  0.73879218  0.13520609  0.30517392    -0.80500
C190        C  0.81116685  0.17892081  0.36218100     0.93400
C191        C  0.87879849  0.27808178  0.30237829     0.93200
Mg192      Mg  0.72695523  0.17453880  0.23170103     1.58000
O193        O  0.67501027  0.17792214  0.21948687    -0.80400
O194        O  0.77927117  0.16306704  0.24014676    -0.74600
O195        O  0.82746594  0.20051330  0.34910262    -0.80500
O196        O  0.82462207  0.33653388  0.24166152    -0.82200
O197        O  0.70747640  0.26974821  0.15537376    -0.80500
C198        C  0.79966776  0.16928032  0.26100724     0.87700
O199        O  0.73757983  0.21493213  0.20396720    -0.87600
O200        O  0.72445775  0.20358314  0.27297251    -0.87800
O201        O  0.69094453  0.23959907  0.25773112    -0.74800
Mg202      Mg  0.83213608  0.21804433  0.29751149     1.58000
O203        O  0.78438027  0.17040884  0.35157478    -0.82200
H204        H  0.84389391  0.24927880  0.20253118    -0.05900
O205        O  0.74089396  0.28231980  0.22213642    -0.87500
H206        H  0.71250581  0.31146260  0.24563769    -0.05700
H207        H  0.75590293  0.18929314  0.16929879    -0.05900
C208        C  0.73571843  0.30111569  0.24355071     0.87600
C209        C  0.83301012  0.24896258  0.22530415     0.88200
C210        C  0.75567382  0.21140757  0.18181274     0.88300
H211        H  0.69034774  0.21980045  0.30085095    -0.05900
O212        O  0.76050989  0.23816269  0.32919856    -0.74900
Mg213      Mg  0.70290970  0.25224551  0.20663560     1.58000
H214        H  0.77924289  0.28190604  0.33387717    -0.05900
C215        C  0.81596969  0.34790679  0.21570814     0.93300
O216        O  0.74968342  0.30099244  0.15333207    -0.82100
C217        C  0.72309856  0.29199836  0.14272847     0.93300
O218        O  0.87196055  0.25123841  0.31373557    -0.82100
Mg219      Mg  0.75285264  0.18741086  0.31236468     1.58200
O220        O  0.79329059  0.33596594  0.20027232    -0.80500
O221        O  0.71242407  0.13354684  0.26048246    -0.82200
N222        N  0.65128924  0.98590189  0.33113226    -0.02900
C223        C  0.64916679  0.00999705  0.31016976    -0.00300
C224        C  0.64008719  0.99920970  0.28112562    -0.23200
C225        C  0.63832644  0.96738219  0.28324146    -0.23400
C226        C  0.64699456  0.95946763  0.31333407    -0.00400
H227        H  0.63888330  0.01258840  0.25968076     0.13400
H228        H  0.63649016  0.95155318  0.26349279     0.13400
O229        O  0.74237158  0.78036593  0.21924767    -0.87700
C230        C  0.74285147  0.75241444  0.31094606     0.88300
Mg231      Mg  0.73296813  0.74757760  0.18151140     1.58100
O232        O  0.81761258  0.76918313  0.27893704    -0.87500
O233        O  0.77669332  0.81504786  0.23561590    -0.74800
C234        C  0.82926668  0.62775654  0.20793537     0.93300
O235        O  0.70052576  0.72568113  0.25128491    -0.74600
O236        O  0.80213629  0.63342287  0.19632909    -0.82100
Mg237      Mg  0.70880379  0.77883059  0.25745932     1.58000
C238        C  0.89048895  0.70418644  0.29774899     0.93300
O239        O  0.70893541  0.83169865  0.26774753    -0.80400
H240        H  0.84832535  0.79864462  0.25907076    -0.05700
C241        C  0.79269134  0.67588375  0.27976445     0.88200
O242        O  0.78599581  0.74166332  0.17102786    -0.74900
O243        O  0.74749914  0.77077361  0.28914800    -0.87700
O244        O  0.87112983  0.72326455  0.31033906    -0.80500
C245        C  0.81483557  0.79135330  0.35922322     0.93400
C246        C  0.72104271  0.84976123  0.28826701     0.93200
Mg247      Mg  0.84344997  0.70032647  0.23669384     1.58000
O248        O  0.84297028  0.64737208  0.22599475    -0.80400
O249        O  0.85077081  0.75369838  0.24306081    -0.74600
O250        O  0.79612389  0.80504397  0.34028620    -0.80500
O251        O  0.66808538  0.78855396  0.22413005    -0.82200
O252        O  0.75343480  0.67241475  0.15414425    -0.80500
C253        C  0.83933443  0.77488775  0.26065301     0.87700
O254        O  0.80423827  0.70756320  0.20459532    -0.87600
O255        O  0.80985827  0.69867211  0.27437692    -0.87800
O256        O  0.77492383  0.66426634  0.25886049    -0.74800
Mg257      Mg  0.78420675  0.80616292  0.28820033     1.58000
O258        O  0.82707690  0.76473663  0.35294524    -0.82200
H259        H  0.76072760  0.81290384  0.19094523    -0.05900
O260        O  0.73366744  0.71009229  0.21558735    -0.87500
H261        H  0.70254056  0.68080178  0.23505170    -0.05700
H262        H  0.83149719  0.72660895  0.17164379    -0.05900
C263        C  0.71179202  0.70447093  0.23366777     0.87600
C264        C  0.75967793  0.80315674  0.21419944     0.88200
C265        C  0.80831682  0.72503292  0.18198776     0.88300
H266        H  0.79219113  0.66610675  0.30302544    -0.05900
O267        O  0.76479148  0.73520611  0.32169957    -0.74900
Mg268      Mg  0.76676193  0.67265011  0.20651150     1.58000
H269        H  0.71937125  0.75033858  0.32051445    -0.05900
C270        C  0.66122728  0.77658683  0.19777772     0.93300
O271        O  0.72081944  0.71190484  0.14302373    -0.82100
C272        C  0.73203722  0.68473779  0.13701804     0.93300
O273        O  0.74817270  0.84438285  0.29987168    -0.82100
Mg274      Mg  0.81793160  0.73091939  0.31238473     1.58200
O275        O  0.68004756  0.75781986  0.18396413    -0.80500
O276        O  0.88444484  0.69129594  0.27148320    -0.82200
N277        N  0.02199820  0.65077646  0.36881240    -0.02900
C278        C  0.05155121  0.66326034  0.37085927    -0.00300
C279        C  0.05003702  0.69420589  0.38076079    -0.23200
C280        C  0.01895317  0.70247162  0.38062167    -0.23400
C281        C  0.00227201  0.67601004  0.37162915    -0.00400
H282        H  0.06939661  0.71084436  0.38114395     0.13400
H283        H  0.01032593  0.72643518  0.38155311     0.13400
N284        N  0.39087848  0.30611305  0.99772421    -0.02900
C285        C  0.39466700  0.28584004  0.02231051    -0.00300
C286        C  0.40621074  0.25711659  0.01252362    -0.23200
C287        C  0.40776680  0.25833278  0.98096027    -0.23400
C288        C  0.39630928  0.28746218  0.97209205    -0.00400
H289        H  0.40882215  0.23596025  0.02634156     0.13400
H290        H  0.41117442  0.23803744  0.96601807     0.13400
O291        O  0.23901674  0.18257992  0.71612239    -0.87700
C292        C  0.33110213  0.21201308  0.71427717     0.88300
Mg293      Mg  0.20058149  0.21525016  0.70937119     1.58100
O294        O  0.30112166  0.19474966  0.78898608    -0.87500
O295        O  0.25664270  0.14808366  0.74961402    -0.74800
C296        C  0.22808333  0.33496877  0.80536058     0.93300
O297        O  0.26907539  0.23845383  0.67438322    -0.74600
O298        O  0.21652586  0.32922073  0.77849872    -0.82100
Mg299      Mg  0.27632928  0.18532598  0.68161017     1.58000
C300        C  0.32264119  0.26054568  0.86139943     0.93300
O301        O  0.28787407  0.13273333  0.68052892    -0.80400
H302        H  0.28302714  0.16478927  0.82008474    -0.05700
C303        C  0.30129257  0.28842011  0.76559256     0.88200
O304        O  0.19279619  0.22027519  0.76234466    -0.74900
O305        O  0.30935009  0.19333511  0.71905563    -0.87700
O306        O  0.33512642  0.24148225  0.84201550    -0.80500
C307        C  0.38177745  0.17242452  0.78371593     0.93400
C308        C  0.30832725  0.11425410  0.69238044     0.93200
Mg309      Mg  0.25947880  0.26300638  0.81737202     1.58000
O310        O  0.24723149  0.31587353  0.81842260    -0.80400
O311        O  0.26689828  0.20965532  0.82399599    -0.74600
O312        O  0.36292636  0.15962464  0.76433681    -0.80500
O313        O  0.24113392  0.17564331  0.64252232    -0.82200
O314        O  0.17340567  0.28876225  0.73395737    -0.80500
C315        C  0.28396333  0.18864652  0.81138172     0.87700
O316        O  0.22644795  0.25516075  0.77965351    -0.87600
O317        O  0.29652483  0.26565374  0.78279192    -0.87800
O318        O  0.27954913  0.29972720  0.74857505    -0.74800
Mg319      Mg  0.30980983  0.15783327  0.75519317     1.58000
O320        O  0.37511917  0.19843917  0.79689851    -0.82200
H321        H  0.21117445  0.14956593  0.73461114    -0.05900
O322        O  0.23478972  0.25311021  0.70934965    -0.87500
H323        H  0.25241689  0.28312737  0.67804124    -0.05700
H324        H  0.19494976  0.23448922  0.80754333    -0.05900
C325        C  0.25176958  0.25930444  0.68686095     0.87600
C326        C  0.23455034  0.15962532  0.73316285     0.88200
C327        C  0.20432460  0.23687018  0.78424043     0.88300
H328        H  0.32472934  0.29836676  0.76434508    -0.05900
O329        O  0.34245426  0.22888098  0.73604283    -0.74900
Mg330      Mg  0.22648458  0.29023985  0.74299299     1.58000
H331        H  0.34017998  0.21459706  0.69087969    -0.05900
C332        C  0.21376817  0.18678985  0.63726658     0.93300
O333        O  0.16107774  0.25075954  0.70039119    -0.82100
C334        C  0.15502856  0.27698596  0.71348113     0.93300
O335        O  0.32049777  0.11961055  0.71903423    -0.82100
Mg336      Mg  0.33487805  0.23302571  0.78906359     1.58200
O337        O  0.20018266  0.20511831  0.65664196    -0.80500
O338        O  0.29545845  0.27247673  0.85652355    -0.82200
N339        N  0.34602982  0.97717390  0.62463956    -0.02900
C340        C  0.32843535  0.00357932  0.61938599    -0.00300
C341        C  0.29767801  0.99556148  0.61186535    -0.23200
C342        C  0.29529953  0.96379771  0.61485083    -0.23400
C343        C  0.32468764  0.95322456  0.62377055    -0.00400
H344        H  0.27775311  0.01137432  0.60978311     0.13400
H345        H  0.27355771  0.95043096  0.61461340     0.13400
O346        O  0.21054397  0.75334769  0.71906925    -0.87700
C347        C  0.25095766  0.66579126  0.72765434     0.88300
Mg348      Mg  0.23852994  0.79277761  0.70269772     1.58100
O349        O  0.23595017  0.70444687  0.79923827    -0.87500
O350        O  0.18238708  0.73723984  0.75862176    -0.74800
C351        C  0.36653505  0.79356940  0.79217687     0.93300
O352        O  0.26563246  0.72337019  0.67721469    -0.74600
O353        O  0.35964893  0.80097836  0.76416914    -0.82100
Mg354      Mg  0.21400537  0.71191395  0.69041189     1.58000
C355        C  0.31087995  0.70456920  0.86503345     0.93300
O356        O  0.16236832  0.69524601  0.69649627    -0.80400
H357        H  0.20576719  0.72368264  0.82950102    -0.05700
C358        C  0.32656143  0.71216549  0.76686548     0.88200
O359        O  0.24510163  0.81090941  0.75285929    -0.74900
O360        O  0.22990509  0.68559677  0.73097086    -0.87700
O361        O  0.29187721  0.68536375  0.85195094    -0.80500
C362        C  0.22366802  0.62281942  0.80843783     0.93400
C363        C  0.14927659  0.67438589  0.71344070     0.93200
Mg364      Mg  0.29850185  0.75899690  0.81281989     1.58000
O365        O  0.34840454  0.77646904  0.80844156    -0.80400
O366        O  0.24745370  0.74680402  0.82563586    -0.74600
O367        O  0.20689760  0.63520850  0.78696275    -0.80500
O368        O  0.19603222  0.74085190  0.64920141    -0.82200
O369        O  0.31078671  0.83315915  0.71676881    -0.80500
C370        C  0.22880286  0.72453103  0.81876599     0.87700
O371        O  0.28494835  0.78451877  0.77183874    -0.87600
O372        O  0.30420368  0.71705434  0.78459890    -0.87800
O373        O  0.33444775  0.73206690  0.74630048    -0.74800
Mg374      Mg  0.19847387  0.68663641  0.77049041     1.58000
O375        O  0.24955194  0.63511311  0.81734209    -0.82200
H376        H  0.17684151  0.78003195  0.73819872    -0.05900
O377        O  0.28014725  0.76388062  0.70524309    -0.87500
H378        H  0.30897787  0.74359163  0.67430367    -0.05700
H379        H  0.26296226  0.81807978  0.79628341    -0.05900
C380        C  0.28598734  0.74386069  0.68516233     0.87600
C381        C  0.18937192  0.75785388  0.73831194     0.88200
C382        C  0.26462501  0.80515210  0.77461035     0.88300
H383        H  0.33915153  0.69006996  0.76833507    -0.05900
O384        O  0.27060526  0.65998260  0.74932562    -0.74900
Mg385      Mg  0.31869679  0.78215344  0.73365766     1.58000
H386        H  0.25303458  0.65350599  0.70565275    -0.05900
C387        C  0.20591962  0.76653400  0.63750443     0.93300
O388        O  0.26923160  0.83198388  0.68493315    -0.82100
C389        C  0.29527382  0.84399367  0.69366209     0.93300
O390        O  0.16009752  0.66710121  0.74012219    -0.82100
Mg391      Mg  0.27823714  0.67642584  0.80017633     1.58200
O392        O  0.22772263  0.78249363  0.65054599    -0.80500
O393        O  0.31601871  0.73182086  0.85410215    -0.82200
N394        N  0.00972203  0.61400650  0.66786090    -0.02900
C395        C  0.03233520  0.61582519  0.69057523    -0.00300
C396        C  0.01918484  0.62201781  0.71934525    -0.23200
C397        C  0.98769227  0.62545914  0.71463369    -0.23400
C398        C  0.98233621  0.62101153  0.68316633    -0.00400
H399        H  0.03166592  0.62744580  0.74075891     0.13400
H400        H  0.97079130  0.63349033  0.73179686     0.13400
N401        N  0.02065986  0.34648504  0.66641221    -0.02900
C402        C  0.04375569  0.35042480  0.68823210    -0.00300
C403        C  0.03156364  0.36195374  0.71577764    -0.23200
C404        C  0.99968658  0.36320726  0.71184263    -0.23400
C405        C  0.99334293  0.35160938  0.68232606    -0.00400
H406        H  0.04383982  0.36452732  0.73780395     0.13400
H407        H  0.98284785  0.36612507  0.73058428     0.13400
O408        O  0.79807020  0.26391869  0.80083381    -0.87700
C409        C  0.70796852  0.26130508  0.76686079     0.88300
Mg410      Mg  0.83813127  0.27318759  0.77121048     1.58100
O411        O  0.74465527  0.18980145  0.78696730    -0.87500
O412        O  0.78068338  0.23218877  0.83666823    -0.74800
C413        C  0.82320541  0.17832051  0.64889343     0.93300
O414        O  0.77004246  0.30369030  0.74361325    -0.74600
O415        O  0.83571072  0.20486274  0.65518842    -0.82100
Mg416      Mg  0.75972236  0.29715103  0.79598844     1.58000
C417        C  0.73060992  0.11809057  0.71945262     0.93300
O418        O  0.74538359  0.29764507  0.84718494    -0.80400
H419        H  0.76486564  0.15996230  0.81708427    -0.05700
C420        C  0.74878826  0.21274056  0.69328568     0.88200
O421        O  0.85069202  0.22062958  0.76792318    -0.74900
O422        O  0.72854899  0.25823475  0.78709072    -0.87700
O423        O  0.72253261  0.13350770  0.74351401    -0.80500
C424        C  0.66313276  0.18456445  0.80353888     0.93400
C425        C  0.72526434  0.28542895  0.86558129     0.93200
Mg426      Mg  0.79140738  0.16334387  0.71971418     1.58000
O427        O  0.80484930  0.16470291  0.66813802    -0.80400
O428        O  0.78173630  0.15666713  0.77280943    -0.74600
O429        O  0.67609266  0.20727735  0.81826570    -0.80500
O430        O  0.79285104  0.33784059  0.80798111    -0.82200
O431        O  0.87503493  0.25281187  0.69866146    -0.80500
C432        C  0.76361708  0.16858992  0.79340114     0.87700
O433        O  0.82323928  0.20159247  0.72901886    -0.87600
O434        O  0.75382981  0.19706197  0.71694355    -0.87800
O435        O  0.77010059  0.23006050  0.68173933    -0.74800
Mg436      Mg  0.72898254  0.22226795  0.82309735     1.58000
O437        O  0.67437754  0.17387820  0.77828007    -0.82200
H438        H  0.82515682  0.25002249  0.83653056    -0.05900
O439        O  0.80788880  0.27102029  0.73102613    -0.87500
H440        H  0.78898077  0.30093181  0.70023942    -0.05700
H441        H  0.85406673  0.17538339  0.75299758    -0.05900
C442        C  0.78928807  0.29225861  0.72393302     0.87600
C443        C  0.80240266  0.24900955  0.82511223     0.88200
C444        C  0.84327571  0.19821518  0.74971725     0.88300
H445        H  0.72571543  0.21205475  0.68249066    -0.05900
O446        O  0.70026278  0.23863695  0.74906452    -0.74900
Mg447      Mg  0.82213739  0.23905191  0.69428811     1.58000
H448        H  0.69687878  0.28401029  0.76369755    -0.05900
C449        C  0.81994856  0.34429568  0.79709500     0.93300
O450        O  0.87831661  0.28536682  0.73932201    -0.82100
C451        C  0.88858693  0.27509891  0.71345483     0.93300
O452        O  0.71339964  0.25835727  0.86017623    -0.82100
Mg453      Mg  0.71445692  0.18640717  0.74689346     1.58200
O454        O  0.83362520  0.32611014  0.77784934    -0.80500
O455        O  0.75644795  0.12431769  0.70587752    -0.82200
N456        N  0.65071340  0.98866245  0.67158360    -0.02900
C457        C  0.64564280  0.96277833  0.68986935    -0.00300
C458        C  0.63872250  0.97152116  0.72012898    -0.23200
C459        C  0.64191551  0.00329144  0.72165749    -0.23400
C460        C  0.65059615  0.01322790  0.69226226    -0.00400
H461        H  0.63672969  0.95609512  0.74011284     0.13400
H462        H  0.64246266  0.01699667  0.74296623     0.13400
O463        O  0.71829396  0.70614530  0.78166247    -0.87700
C464        C  0.74922318  0.79755907  0.78019287     0.88300
Mg465      Mg  0.75020947  0.66805273  0.79061449     1.58100
O466        O  0.73388681  0.76501689  0.70607104    -0.87500
O467        O  0.68609816  0.72209456  0.74508582    -0.74800
C468        C  0.86954945  0.68432636  0.69473742     0.93300
O469        O  0.77417318  0.73753102  0.82291712    -0.74600
O470        O  0.86107954  0.67590187  0.72180754    -0.82100
Mg471      Mg  0.72100979  0.74495374  0.81448016     1.58000
C472        C  0.80078531  0.78300164  0.63497842     0.93300
O473        O  0.66862154  0.75673584  0.81250852    -0.80400
H474        H  0.70424307  0.74830060  0.67370878    -0.05700
C475        C  0.82715396  0.76372177  0.73145770     0.88200
O476        O  0.75498048  0.65800072  0.73763853    -0.74900
O477        O  0.73005017  0.77611001  0.77567715    -0.87700
O478        O  0.78108657  0.79570487  0.65359308    -0.80500
C479        C  0.71135466  0.84603368  0.70777077     0.93400
C480        C  0.64917455  0.77437970  0.79802879     0.93200
Mg481      Mg  0.80157705  0.72134414  0.67999131     1.58000
O482        O  0.85492104  0.70585217  0.67971719    -0.80400
O483        O  0.74871442  0.73064358  0.67125548    -0.74600
O484        O  0.69731382  0.82724470  0.72624974    -0.80500
O485        O  0.71051958  0.71168339  0.85579836    -0.82200
O486        O  0.82034484  0.63706325  0.76579217    -0.80500
C487        C  0.72786422  0.74828637  0.68329560     0.87700
O488        O  0.79042081  0.69023607  0.71887641    -0.87600
O489        O  0.80453771  0.75938307  0.71378617    -0.87800
O490        O  0.83708085  0.74211092  0.74938562    -0.74800
Mg491      Mg  0.69579766  0.77470893  0.73782614     1.58000
O492        O  0.73830543  0.83939581  0.69639649    -0.82200
H493        H  0.68610397  0.67768754  0.76245572    -0.05900
O494        O  0.78813090  0.70163128  0.78926679    -0.87500
H495        H  0.81866681  0.71999191  0.81992454    -0.05700
H496        H  0.76826308  0.65855315  0.69210988    -0.05900
C497        C  0.79475438  0.71941763  0.81109579     0.87600
C498        C  0.69628106  0.70100087  0.76345548     0.88200
C499        C  0.77131679  0.66858633  0.71510810     0.88300
H500        H  0.83822676  0.78663348  0.73223311    -0.05900
O501        O  0.76711253  0.80752357  0.75863903    -0.74900
Mg502      Mg  0.82449344  0.68993155  0.75634883     1.58000
H503        H  0.75146447  0.80747895  0.80332866    -0.05900
C504        C  0.72286883  0.68506936  0.86218824     0.93300
O505        O  0.78490374  0.62856443  0.80257152    -0.82100
C506        C  0.81020923  0.62094483  0.78866779     0.93300
O507        O  0.65544942  0.78555272  0.77123038    -0.82100
Mg508      Mg  0.77236879  0.79824854  0.70607162     1.58200
O509        O  0.74131492  0.67138364  0.84305167    -0.80500
O510        O  0.81318206  0.75622873  0.64072039    -0.82200
N511        N  0.38120998  0.65539449  0.99716057    -0.02900
C512        C  0.38365378  0.67502833  0.02236408    -0.00300
C513        C  0.39606588  0.70379796  0.01401442    -0.23200
C514        C  0.39891370  0.70341857  0.98249137    -0.23400
C515        C  0.38733080  0.67469933  0.97232716    -0.00400
H516        H  0.39791764  0.72459686  0.02852921     0.13400
H517        H  0.40276487  0.72420654  0.96841018     0.13400
N518        N  0.68758493  0.35389525  0.00301521    -0.02900
C519        C  0.70475540  0.35488330  0.02991266    -0.00300
C520        C  0.73667659  0.35590965  0.02356694    -0.23200
C521        C  0.73975515  0.35408111  0.99205015    -0.23400
C522        C  0.70960242  0.35235930  0.97992631    -0.00400
H523        H  0.75577184  0.35377316  0.04026640     0.13400
H524        H  0.76169710  0.35069785  0.97963522     0.13400
N525        N  0.68528092  0.61746898  0.00156223    -0.02900
C526        C  0.70304221  0.61336048  0.02798879    -0.00300
C527        C  0.73410907  0.60705789  0.02036323    -0.23200
C528        C  0.73670894  0.61039288  0.98898295    -0.23400
C529        C  0.70702392  0.61777170  0.97801340    -0.00400
H530        H  0.75390033  0.60575643  0.03634632     0.13400
H531        H  0.75863880  0.61123403  0.97614286     0.13400
N532        N  0.52201208  0.11627146  0.16754549    -0.02900
C533        C  0.50107884  0.11279131  0.19141936    -0.00300
C534        C  0.51626709  0.10397504  0.21855653    -0.23200
C535        C  0.54769953  0.10396867  0.21211742    -0.23400
C536        C  0.55084581  0.11353181  0.18148962    -0.00400
H537        H  0.50621343  0.10253467  0.24167354     0.13400
H538        H  0.56626262  0.10310546  0.22951271     0.13400
N539        N  0.19610251  0.48327213  0.12544341    -0.02900
C540        C  0.21308817  0.51040518  0.12286836    -0.00300
C541        C  0.24502889  0.50396178  0.12117845    -0.23200
C542        C  0.24832885  0.47222350  0.12414405    -0.23400
C543        C  0.21833230  0.46014910  0.12745061    -0.00400
H544        H  0.26413483  0.52084241  0.12220484     0.13400
H545        H  0.27038072  0.45971678  0.12724089     0.13400
N546        N  0.14776643  0.15515948  0.49718334    -0.02900
C547        C  0.14538771  0.17229075  0.52408547    -0.00300
C548        C  0.14162380  0.20392184  0.51763057    -0.23200
C549        C  0.14359856  0.20714478  0.48617525    -0.23400
C550        C  0.14815483  0.17735889  0.47410842    -0.00400
H551        H  0.14249370  0.22312379  0.53425745     0.13400
H552        H  0.14573789  0.22926204  0.47383746     0.13400
N553        N  0.01772303  0.93325799  0.49432360    -0.36000
N554        N  0.96939258  0.98241308  0.49762881    -0.56600
N555        N  0.01802768  0.03053498  0.49759684    -0.36000
N556        N  0.06731252  0.98145431  0.49837419    -0.56600
C557        C  0.99177634  0.91569042  0.50092030     0.27600
C558        C  0.04349387  0.91518902  0.50011188     0.27600
C559        C  0.99230056  0.04833184  0.50453592     0.27600
C560        C  0.04398081  0.04787317  0.50442789     0.27600
C561        C  0.95089458  0.95703138  0.49201925     0.36200
C562        C  0.95103788  0.00817727  0.49322312     0.36200
C563        C  0.08559507  0.95579112  0.49252277     0.36200
C564        C  0.08571476  0.00731793  0.49417005     0.36200
C565        C  0.00119444  0.88611927  0.51086755    -0.21300
C566        C  0.03369324  0.88577140  0.51032495    -0.21300
C567        C  0.00205715  0.07725562  0.51597254    -0.21300
C568        C  0.03456263  0.07702810  0.51580833    -0.21300
C569        C  0.92075046  0.96677227  0.48383109    -0.22300
C570        C  0.92084823  0.99906964  0.48457542    -0.22300
C571        C  0.11586917  0.96547480  0.48504615    -0.22300
C572        C  0.11593381  0.99796161  0.48606242    -0.22300
C573        C  0.95982706  0.92522651  0.49713274    -0.17700
C574        C  0.07557178  0.92376405  0.49479863    -0.17700
C575        C  0.07587486  0.03919266  0.49845757    -0.17700
C576        C  0.96030661  0.03967705  0.49947997    -0.17700
H577        H  0.98621556  0.86669700  0.51767757     0.15200
H578        H  0.04845746  0.86598419  0.51669216     0.15200
H579        H  0.98730071  0.09667531  0.52335247     0.15200
H580        H  0.04959368  0.09631034  0.52304526     0.15200
H581        H  0.90059660  0.95210954  0.47835811     0.13500
H582        H  0.90079750  0.01410871  0.47976149     0.13500
H583        H  0.13585641  0.95069909  0.47936155     0.13500
H584        H  0.13598010  0.01297461  0.48136135     0.13500
H585        H  0.01784578  0.95513053  0.48350096     0.26800
H586        H  0.01800933  0.00927959  0.48558789     0.26800
N587        N  0.51461302  0.98098139  0.04771081    -0.36000
N588        N  0.51601474  0.93325095  0.99896085    -0.56600
N589        N  0.51487309  0.98262557  0.95155263    -0.36000
N590        N  0.51772572  0.03095267  0.00009495    -0.56600
C591        C  0.52184032  0.95495632  0.06479891     0.27600
C592        C  0.52146270  0.00665681  0.06533762     0.27600
C593        C  0.52092241  0.95690623  0.93372031     0.27600
C594        C  0.52259582  0.00837356  0.93455409     0.27600
C595        C  0.50997309  0.91483741  0.02407030     0.36200
C596        C  0.50897276  0.91586052  0.97332245     0.36200
C597        C  0.51144850  0.04867749  0.02567775     0.36200
C598        C  0.51242371  0.04950169  0.97484594     0.36200
C599        C  0.53359710  0.96431315  0.09355604    -0.21300
C600        C  0.53318063  0.99679654  0.09397456    -0.21300
C601        C  0.53272164  0.96638651  0.90513346    -0.21300
C602        C  0.53382810  0.99878859  0.90566037    -0.21300
C603        C  0.49886651  0.88575616  0.01423813    -0.22300
C604        C  0.49831578  0.88638120  0.98221074    -0.22300
C605        C  0.50226073  0.07864254  0.01658332    -0.22300
C606        C  0.50288177  0.07915222  0.98445621    -0.22300
C607        C  0.51649420  0.92310480  0.05562076    -0.17700
C608        C  0.51550551  0.03865967  0.05709148    -0.17700
C609        C  0.51726655  0.04026117  0.94333276    -0.17700
C610        C  0.51439933  0.92525495  0.94200094    -0.17700
H611        H  0.54137886  0.94932362  0.11246242     0.15200
H612        H  0.54057531  0.01150496  0.11328718     0.15200
H613        H  0.53952539  0.95152365  0.88575888     0.15200
H614        H  0.54163013  0.01363603  0.88669253     0.15200
H615        H  0.49198635  0.86601673  0.02862048     0.13500
H616        H  0.49108609  0.86719847  0.96716828     0.13500
H617        H  0.49581269  0.09815630  0.03151995     0.13500
H618        H  0.49697383  0.09907617  0.96985456     0.13500
H619        H  0.50248041  0.98132409  0.02662786     0.26800
H620        H  0.50271940  0.98270577  0.97256443     0.26800
N621        N  0.02134806  0.48436157  0.04859948    -0.36000
N622        N  0.06870776  0.48459334  0.99938427    -0.56600
N623        N  0.01961708  0.48589923  0.95218545    -0.36000
N624        N  0.97110325  0.48176705  0.00133199    -0.56600
C625        C  0.04781678  0.47772668  0.06536195     0.27600
C626        C  0.99604974  0.47704139  0.06648292     0.27600
C627        C  0.04520656  0.47842450  0.93454376     0.27600
C628        C  0.99347727  0.47828937  0.93554265     0.27600
C629        C  0.08705036  0.49111838  0.02445138     0.36200
C630        C  0.08606513  0.49161432  0.97385752     0.36200
C631        C  0.95333027  0.48681253  0.02723491     0.36200
C632        C  0.95245769  0.48796400  0.97620752     0.36200
C633        C  0.03922421  0.46605629  0.09427050    -0.21300
C634        C  0.00666153  0.46568254  0.09502092    -0.21300
C635        C  0.03514270  0.46571604  0.90646528    -0.21300
C636        C  0.00258449  0.46577032  0.90701630    -0.21300
C637        C  0.11597267  0.50275834  0.01478971    -0.22300
C638        C  0.11532399  0.50312905  0.98279377    -0.22300
C639        C  0.92317549  0.49589082  0.01842928    -0.22300
C640        C  0.92263618  0.49665211  0.98626186    -0.22300
C641        C  0.07938135  0.48351742  0.05570015    -0.17700
C642        C  0.96375326  0.48259165  0.05866243    -0.17700
C643        C  0.96171288  0.48467476  0.94436858    -0.17700
C644        C  0.07723664  0.48419980  0.94278680    -0.17700
H645        H  0.05477350  0.45894154  0.11304815     0.15200
H646        H  0.99239661  0.45815610  0.11453505     0.15200
H647        H  0.04970419  0.45754551  0.88740520     0.15200
H648        H  0.98729669  0.45771623  0.88838464     0.15200
H649        H  0.13574105  0.50967190  0.02929179     0.13500
H650        H  0.13449575  0.51034868  0.96779406     0.13500
H651        H  0.90360162  0.50159974  0.03357198     0.13500
H652        H  0.90254598  0.50297005  0.97195164     0.13500
H653        H  0.02050164  0.49640078  0.02753233     0.26800
H654        H  0.01976084  0.49869296  0.97290169     0.26800
N655        N  0.56209199  0.48537874  0.00254430    -0.36000
N656        N  0.51315244  0.53317793  0.00056489    -0.56600
N657        N  0.46507909  0.48295210  0.99802461    -0.36000
N658        N  0.51515103  0.43513818  0.00376865    -0.56600
C659        C  0.57891908  0.51159607  0.00974172     0.27600
C660        C  0.57991856  0.46015963  0.01071455     0.27600
C661        C  0.44626792  0.50864961  0.00169892     0.27600
C662        C  0.44738529  0.45680334  0.00345575     0.27600
C663        C  0.53867108  0.55208731  0.99659108     0.36200
C664        C  0.48727074  0.55082116  0.99425286     0.36200
C665        C  0.54146414  0.41754091  0.99898135     0.36200
C666        C  0.49008268  0.41618997  0.99797705     0.36200
C667        C  0.60750326  0.50288927  0.02295453    -0.21300
C668        C  0.60808195  0.47053660  0.02369226    -0.21300
C669        C  0.41604684  0.49859518  0.00906338    -0.21300
C670        C  0.41675168  0.46603564  0.01015405    -0.21300
C671        C  0.52898257  0.58190732  0.98782565    -0.22300
C672        C  0.49652260  0.58118702  0.98651056    -0.22300
C673        C  0.53303936  0.38731292  0.99015093    -0.22300
C674        C  0.50061255  0.38632148  0.98994389    -0.22300
C675        C  0.57043138  0.54308574  0.00239826    -0.17700
C676        C  0.57287235  0.42813031  0.00399079    -0.17700
C677        C  0.45778470  0.42486801  0.00105453    -0.17700
C678        C  0.45534286  0.54082215  0.99759997    -0.17700
H679        H  0.62625139  0.51828611  0.03083389     0.15200
H680        H  0.62738807  0.45623128  0.03224916     0.15200
H681        H  0.39552174  0.51319835  0.01310802     0.15200
H682        H  0.39688793  0.45087692  0.01516022     0.15200
H683        H  0.54371147  0.60218895  0.98331183     0.13500
H684        H  0.48143006  0.60091612  0.98074446     0.13500
H685        H  0.54855863  0.36787028  0.98462947     0.13500
H686        H  0.48641845  0.36593091  0.98422550     0.13500
H687        H  0.54178093  0.48463097  0.98890191     0.26800
H688        H  0.48802688  0.48315860  0.98970981     0.26800
N689        N  0.01043423  0.52709085  0.50028081    -0.36000
N690        N  0.01628237  0.47998771  0.45052827    -0.56600
N691        N  0.01484781  0.42913215  0.49684549    -0.36000
N692        N  0.01304258  0.47691453  0.54623754    -0.56600
C693        C  0.01788050  0.54549944  0.47556586     0.27600
C694        C  0.01660885  0.54385965  0.52660790     0.27600
C695        C  0.02325972  0.41278262  0.47095618     0.27600
C696        C  0.02222655  0.41127787  0.52209562     0.27600
C697        C  0.00994865  0.50599884  0.43318552     0.36200
C698        C  0.01232399  0.45473454  0.43147699     0.36200
C699        C  0.00534799  0.50154179  0.56490251     0.36200
C700        C  0.00776448  0.45044217  0.56302468     0.36200
C701        C  0.02880876  0.57433469  0.48634943    -0.21300
C702        C  0.02814814  0.57323585  0.51848145    -0.21300
C703        C  0.03575159  0.38395325  0.47987688    -0.21300
C704        C  0.03513579  0.38302544  0.51209298    -0.21300
C705        C  0.00183812  0.49720967  0.40310508    -0.22300
C706        C  0.00337067  0.46488130  0.40199532    -0.22300
C707        C  0.99473002  0.49059781  0.59344268    -0.22300
C708        C  0.99631014  0.45833133  0.59228056    -0.22300
C709        C  0.01339874  0.53762517  0.44358422    -0.17700
C710        C  0.01072331  0.53371448  0.55763636    -0.17700
C711        C  0.01652503  0.41952930  0.55376418    -0.17700
C712        C  0.01880091  0.42281001  0.43956549    -0.17700
H713        H  0.03649047  0.59416984  0.47249435     0.15200
H714        H  0.03521502  0.59203137  0.53406233     0.15200
H715        H  0.04445629  0.36549037  0.46474943     0.15200
H716        H  0.04321221  0.36370262  0.52648127     0.15200
H717        H  0.99574350  0.51251526  0.38384741     0.13500
H718        H  0.99859798  0.45050308  0.38166608     0.13500
H719        H  0.98719776  0.50443535  0.61328942     0.13500
H720        H  0.99032471  0.44246771  0.61109344     0.13500
H721        H  0.99868643  0.50562839  0.49912052     0.26800
H722        H  0.00220735  0.45009692  0.49713101     0.26800
N723        N  0.56865299  0.98163155  0.50046072    -0.36000
N724        N  0.52000774  0.98300904  0.54859902    -0.56600
N725        N  0.47154248  0.98209440  0.49989836    -0.36000
N726        N  0.51887961  0.98444646  0.45179126    -0.56600
C727        C  0.58660877  0.98761085  0.52611852     0.27600
C728        C  0.58611883  0.98853245  0.47488776     0.27600
C729        C  0.45422345  0.98882538  0.52554025     0.27600
C730        C  0.45353179  0.98900319  0.47462603     0.27600
C731        C  0.54564672  0.97777228  0.56678569     0.36200
C732        C  0.49434160  0.97721163  0.56647966     0.36200
C733        C  0.54464831  0.97973497  0.43378899     0.36200
C734        C  0.49325840  0.97894053  0.43347147     0.36200
C735        C  0.61610184  0.99788947  0.51665623    -0.21300
C736        C  0.61579669  0.99848472  0.48443891    -0.21300
C737        C  0.42504698  0.00053326  0.51643696    -0.21300
C738        C  0.42462521  0.00066725  0.48436717    -0.21300
C739        C  0.53614022  0.96885687  0.59642955    -0.22300
C740        C  0.50367949  0.96828112  0.59615229    -0.22300
C741        C  0.53524192  0.97142226  0.40383024    -0.22300
C742        C  0.50277807  0.97082190  0.40368288    -0.22300
C743        C  0.57741071  0.98319742  0.55777172    -0.17700
C744        C  0.57646722  0.98502177  0.44318233    -0.17700
C745        C  0.46145411  0.98261067  0.44310749    -0.17700
C746        C  0.46267115  0.98168875  0.55679361    -0.17700
H747        H  0.63582136  0.00433684  0.53142870     0.15200
H748        H  0.63526773  0.00548526  0.46971840     0.15200
H749        H  0.40576184  0.00761837  0.53139488     0.15200
H750        H  0.40500789  0.00796076  0.46985393     0.15200
H751        H  0.55105211  0.96347825  0.61625827     0.13500
H752        H  0.48868956  0.96244445  0.61569835     0.13500
H753        H  0.55023422  0.96646366  0.38402364     0.13500
H754        H  0.48793663  0.96530331  0.38384255     0.13500
H755        H  0.54649047  0.97084002  0.50025517     0.26800
H756        H  0.49261729  0.96929375  0.49973047     0.26800
C757        C  0.09930118  0.06573753  0.49546676    -0.04900
C758        C  0.09559955  0.08731435  0.47100768    -0.32300
C759        C  0.11237490  0.11581909  0.47033839     0.37000
C760        C  0.13465808  0.12333711  0.49406703    -0.05200
C761        C  0.13962768  0.10056270  0.51761608    -0.32200
C762        C  0.12203594  0.07231269  0.51860459     0.36900
H763        H  0.07793652  0.08292013  0.45319956     0.17200
O764        O  0.10485586  0.13694124  0.44738866    -0.59700
H765        H  0.15628101  0.10510541  0.53619376     0.17200
O766        O  0.12554727  0.05244922  0.54355068    -0.59800
H767        H  0.14457954  0.03973808  0.53882094     0.44200
H768        H  0.08688018  0.14928518  0.45576939     0.44200
C769        C  0.16440436  0.47932113  0.11251651    -0.04900
C770        C  0.13994422  0.50057542  0.12004061    -0.32300
C771        C  0.11141128  0.50116372  0.10303820     0.37000
C772        C  0.10640523  0.47989957  0.07827825    -0.05200
C773        C  0.12978652  0.45737284  0.07205468    -0.32200
C774        C  0.15846384  0.45705311  0.08852163     0.36900
H775        H  0.14319634  0.51768748  0.13836075     0.17200
O776        O  0.08921304  0.52361212  0.10988215    -0.59700
H777        H  0.12656268  0.44104811  0.05285865     0.17200
O778        O  0.18161960  0.43682224  0.07869804    -0.59800
H779        H  0.17462058  0.41563923  0.08538192     0.44200
H780        H  0.09358552  0.54126194  0.09542598     0.44200
C781        C  0.51619163  0.10226733  0.13685102    -0.04900
C782        C  0.49236068  0.07925877  0.13311031    -0.32300
C783        C  0.49097395  0.05992333  0.10658431     0.37000
C784        C  0.51383216  0.06260742  0.08298786    -0.05200
C785        C  0.53595059  0.08718302  0.08515402    -0.32200
C786        C  0.53687309  0.10720539  0.11139769     0.36900
H787        H  0.47559115  0.07482760  0.15156473     0.17200
O788        O  0.46797672  0.03730030  0.10465744    -0.59700
H789        H  0.55318869  0.09029273  0.06680797     0.17200
O790        O  0.55871063  0.13093030  0.11210501    -0.59800
H791        H  0.54670569  0.15037146  0.10722513     0.44200
H792        H  0.45081323  0.04702371  0.09225245     0.44200
C793        C  0.65387999  0.60319455  0.99852039    -0.04900
C794        C  0.63065454  0.60813237  0.02162058    -0.32300
C795        C  0.60252997  0.59015751  0.02236010     0.37000
C796        C  0.59683741  0.56673820  0.99968338    -0.05200
C797        C  0.61908896  0.56272128  0.97592443    -0.32200
C798        C  0.64729612  0.58001141  0.97537311     0.36900
H799        H  0.63488197  0.62506347  0.04001946     0.17200
O800        O  0.58187624  0.59408151  0.04660535    -0.59700
H801        H  0.61542577  0.54450657  0.95855730     0.17200
O802        O  0.66909631  0.57209031  0.95319703    -0.59800
H803        H  0.68160096  0.55469078  0.96252003     0.44200
H804        H  0.56886129  0.61262303  0.04083254     0.44200
C805        C  0.65693908  0.36910270  0.99986691    -0.04900
C806        C  0.63153706  0.36051885  0.01919256    -0.32300
C807        C  0.60367550  0.37870631  0.02031943     0.37000
C808        C  0.60029333  0.40561081  0.00123553    -0.05200
C809        C  0.62505101  0.41322462  0.98090721    -0.32200
C810        C  0.65323984  0.39600053  0.98069584     0.36900
H811        H  0.63373364  0.34035420  0.03441173     0.17200
O812        O  0.58045490  0.37061413  0.04100941    -0.59700
H813        H  0.62321321  0.43394007  0.96627857     0.17200
O814        O  0.67778272  0.40711469  0.96311299    -0.59800
H815        H  0.68953479  0.42164848  0.97710832     0.44200
H816        H  0.58516246  0.38278600  0.06018054     0.44200
C817        C  0.39365743  0.62301784  0.99853140    -0.04900
C818        C  0.40880049  0.61204195  0.02596971    -0.32300
C819        C  0.42717990  0.58449203  0.02619442     0.37000
C820        C  0.43065869  0.56633222  0.99900800    -0.05200
C821        C  0.41383925  0.57541416  0.97223033    -0.32200
C822        C  0.39534023  0.60312707  0.97184611     0.36900
H823        H  0.40825924  0.62576015  0.04719911     0.17200
O824        O  0.44287895  0.57616925  0.05296341    -0.59700
H825        H  0.41612366  0.56166738  0.95105493     0.17200
O826        O  0.38012613  0.61090481  0.94474735    -0.59800
H827        H  0.36049834  0.59830216  0.94476651     0.44200
H828        H  0.46298700  0.58802102  0.05240142     0.44200
C829        C  0.71492696  0.66779538  0.89156182    -0.04900
C830        C  0.72377768  0.63592572  0.89387175    -0.32300
C831        C  0.71841443  0.61856709  0.92098121     0.37000
C832        C  0.70342460  0.63255873  0.94676852    -0.05200
C833        C  0.69264925  0.66377364  0.94409250    -0.32200
C834        C  0.69818208  0.68137586  0.91672423     0.36900
H835        H  0.73570361  0.62425908  0.87475392     0.17200
O836        O  0.72866880  0.58791557  0.92241932    -0.59700
H837        H  0.68177437  0.67519569  0.96395213     0.17200
O838        O  0.68867820  0.71220945  0.91562078    -0.59800
H839        H  0.66649771  0.71152925  0.90821549     0.44200
H840        H  0.75204392  0.58901764  0.92282665     0.44200
C841        C  0.63816103  0.99043379  0.63963956    -0.04900
C842        C  0.63993970  0.96398988  0.61960410    -0.32300
C843        C  0.62150149  0.96179526  0.59223128     0.37000
C844        C  0.60143424  0.98667031  0.58345433    -0.05200
C845        C  0.60134000  0.01400302  0.60174708    -0.32200
C846        C  0.61901171  0.01607004  0.62948072     0.36900
H847        H  0.65446779  0.94407295  0.62580512     0.17200
O848        O  0.62215621  0.93458349  0.57500926    -0.59700
H849        H  0.58597048  0.03336728  0.59536922     0.17200
O850        O  0.61568545  0.04278513  0.64709700    -0.59800
H851        H  0.59617716  0.03955344  0.65938167     0.44200
H852        H  0.60588159  0.92081584  0.58448223     0.44200
C853        C  0.66025766  0.93134889  0.68527997    -0.04900
C854        C  0.69257665  0.92915267  0.67826470    -0.32300
C855        C  0.70963085  0.90142813  0.68462689     0.37000
C856        C  0.69436926  0.87538833  0.69843614    -0.05200
C857        C  0.66151206  0.87706198  0.70309234    -0.32200
C858        C  0.64456803  0.90449004  0.69642013     0.36900
H859        H  0.70512114  0.94966406  0.66993187     0.17200
O860        O  0.74136114  0.90063817  0.67851815    -0.59700
H861        H  0.64880723  0.85719412  0.71268007     0.17200
O862        O  0.61297401  0.90565309  0.70319667    -0.59800
H863        H  0.60213051  0.90035404  0.68333315     0.44200
H864        H  0.75158147  0.90989437  0.69722044     0.44200
C865        C  0.71558800  0.30449545  0.89326071    -0.04900
C866        C  0.72810928  0.33503583  0.89661787    -0.32300
C867        C  0.72281297  0.35279519  0.92351919     0.37000
C868        C  0.70454341  0.34038219  0.94787682    -0.05200
C869        C  0.68912879  0.31145223  0.94338894    -0.32200
C870        C  0.69432847  0.29358326  0.91618984     0.36900
H871        H  0.74329722  0.34495937  0.87889221     0.17200
O872        O  0.73684816  0.38178844  0.92656542    -0.59700
H873        H  0.67507932  0.30151291  0.96201167     0.17200
O874        O  0.67989295  0.26487071  0.91320178    -0.59800
H875        H  0.65930248  0.26940576  0.90303884     0.44200
H876        H  0.75987339  0.37761242  0.92829812     0.44200
C877        C  0.70911342  0.09314339  0.70733864    -0.04900
C878        C  0.72039383  0.06838367  0.68855230    -0.32300
C879        C  0.70043391  0.04330646  0.67983659     0.37000
C880        C  0.66864782  0.04310821  0.68948225    -0.05200
C881        C  0.65677384  0.06954360  0.70520855    -0.32200
C882        C  0.67652900  0.09424225  0.71416458     0.36900
H883        H  0.74506572  0.06753663  0.68207358     0.17200
O884        O  0.71279372  0.01812239  0.66398942    -0.59700
H885        H  0.63236583  0.06992839  0.71270555     0.17200
O886        O  0.66377266  0.11880167  0.73069215    -0.59800
H887        H  0.65775294  0.13465270  0.71480163     0.44200
H888        H  0.72305371  0.00493040  0.68013784     0.44200
C889        C  0.02423666  0.35913015  0.63495809    -0.04900
C890        C  0.04632619  0.38334159  0.62932153    -0.32300
C891        C  0.04535432  0.40130602  0.60196122     0.37000
C892        C  0.02190424  0.39581262  0.57928281    -0.05200
C893        C  0.00151427  0.37003066  0.58334846    -0.32200
C894        C  0.00275828  0.35160526  0.61071429     0.36900
H895        H  0.06329362  0.38995413  0.64705779     0.17200
O896        O  0.06601105  0.42592081  0.59865389    -0.59700
H897        H  0.98358883  0.36512284  0.56595791     0.17200
O898        O  0.98185930  0.32725983  0.61403366    -0.59800
H899        H  0.99465817  0.30783846  0.61169768     0.44200
H900        H  0.08525859  0.41653057  0.58955770     0.44200
C901        C  0.96560651  0.33065769  0.67994310    -0.04900
C902        C  0.96983113  0.29803407  0.68423073    -0.32300
C903        C  0.94459489  0.27891291  0.69378164     0.37000
C904        C  0.91481208  0.29244597  0.69890873    -0.05200
C905        C  0.91016085  0.32450734  0.69229594    -0.32200
C906        C  0.93521524  0.34352847  0.68273306     0.36900
H907        H  0.99327269  0.28792870  0.68291303     0.17200
O908        O  0.94982216  0.24773783  0.70026942    -0.59700
H909        H  0.88720688  0.33515020  0.69594127     0.17200
O910        O  0.93039682  0.37524267  0.67901739    -0.59800
H911        H  0.93091984  0.37881269  0.65614012     0.44200
H912        H  0.95513253  0.24706253  0.72275543     0.44200
C913        C  0.01250730  0.59658188  0.63847758    -0.04900
C914        C  0.99183502  0.60240442  0.61327023    -0.32300
C915        C  0.99143285  0.58284154  0.58657719     0.37000
C916        C  0.01229801  0.55705996  0.58418658    -0.05200
C917        C  0.03389484  0.55207956  0.60850930    -0.32200
C918        C  0.03372374  0.57081264  0.63548417     0.36900
H919        H  0.97540630  0.62180972  0.61429574     0.17200
O920        O  0.96933775  0.58805481  0.56373179    -0.59700
H921        H  0.05015201  0.53241382  0.60723024     0.17200
O922        O  0.05337823  0.56228967  0.65942183    -0.59800
H923        H  0.04104323  0.54717664  0.67213892     0.44200
H924        H  0.97687135  0.60681638  0.55224936     0.44200
C925        C  0.95197310  0.63193607  0.67012981    -0.04900
C926        C  0.94966806  0.66362892  0.66061733    -0.32300
C927        C  0.92176419  0.68096418  0.66571999     0.37000
C928        C  0.89608073  0.66648559  0.68067371    -0.05200
C929        C  0.89719717  0.63384020  0.68606263    -0.32200
C930        C  0.92466829  0.61657672  0.68060290     0.36900
H931        H  0.97062089  0.67595243  0.65291905     0.17200
O932        O  0.92102009  0.71248634  0.65889128    -0.59700
H933        H  0.87736929  0.62205033  0.69688088     0.17200
O934        O  0.92617940  0.58593293  0.69058188    -0.59800
H935        H  0.92589259  0.57307070  0.67129793     0.44200
H936        H  0.92902433  0.72318526  0.67787947     0.44200
C937        C  0.33022654  0.69408280  0.89184052    -0.04900
C938        C  0.31689648  0.67790816  0.91705267    -0.32300
C939        C  0.33555997  0.66928318  0.94285627     0.37000
C940        C  0.36832273  0.67562143  0.94303614    -0.05200
C941        C  0.38177283  0.68984906  0.91670244    -0.32200
C942        C  0.36303019  0.69967737  0.89169420     0.36900
H943        H  0.29175173  0.67335614  0.91743789     0.17200
O944        O  0.32107701  0.65719827  0.96872441    -0.59700
H945        H  0.40678324  0.69516100  0.91638355     0.17200
O946        O  0.37711278  0.71455835  0.86696728    -0.59800
H947        H  0.37925108  0.73687872  0.87345063     0.44200
H948        H  0.31838241  0.63450121  0.96435090     0.44200
C949        C  0.12145264  0.65685354  0.70169250    -0.04900
C950        C  0.11601708  0.62633639  0.71311301    -0.32300
C951        C  0.08853040  0.60998936  0.70538275     0.37000
C952        C  0.06576401  0.62410517  0.68598051    -0.05200
C953        C  0.07260081  0.65309597  0.67186585    -0.32200
C954        C  0.10014647  0.66965876  0.67978585     0.36900
H955        H  0.13250268  0.61554444  0.72925040     0.17200
O956        O  0.08234090  0.58183345  0.71979063    -0.59700
H957        H  0.05496045  0.66454559  0.65746162     0.17200
O958        O  0.10471371  0.69922700  0.66783694    -0.59800
H959        H  0.09303858  0.71360383  0.68200438     0.44200
H960        H  0.09595959  0.56619205  0.70913974     0.44200
C961        C  0.37826079  0.97430853  0.61296300    -0.04900
C962        C  0.40084610  0.99783715  0.61957297    -0.32300
C963        C  0.42947305  0.99958272  0.60297051     0.37000
C964        C  0.43624922  0.97738618  0.57951520    -0.05200
C965        C  0.41509293  0.95262540  0.57450086    -0.32200
C966        C  0.38635482  0.95110543  0.59039547     0.36900
H967        H  0.39572892  0.01593059  0.63654584     0.17200
O968        O  0.44946473  0.02443021  0.60810624    -0.59700
H969        H  0.41993482  0.93544043  0.55641494     0.17200
O970        O  0.36553112  0.92804405  0.58166067    -0.59800
H971        H  0.35363088  0.93695304  0.56377209     0.44200
H972        H  0.46213158  0.01839592  0.62665636     0.44200
C973        C  0.32774886  0.92249862  0.63960998    -0.04900
C974        C  0.31393053  0.89636944  0.62505500    -0.32300
C975        C  0.30422270  0.87043689  0.64244962     0.37000
C976        C  0.30849770  0.87013724  0.67508080    -0.05200
C977        C  0.32561318  0.89466735  0.68921404    -0.32200
C978        C  0.33518397  0.92088447  0.67164667     0.36900
H979        H  0.30830115  0.89716472  0.60038850     0.17200
O980        O  0.29029098  0.84553272  0.62732087    -0.59700
H981        H  0.32989893  0.89439366  0.71413424     0.17200
O982        O  0.34852262  0.94612597  0.68664349    -0.59800
H983        H  0.37155853  0.94378669  0.68335845     0.44200
H984        H  0.26829111  0.85226626  0.62316529     0.44200
C985        C  0.19607556  0.17722196  0.60874036    -0.04900
C986        C  0.16289183  0.17886467  0.60888324    -0.32300
C987        C  0.14532488  0.17239582  0.58197581     0.37000
C988        C  0.16074349  0.16446635  0.55407751    -0.05200
C989        C  0.19358966  0.15993252  0.55449661    -0.32200
C990        C  0.21128520  0.16619683  0.58156287     0.36900
H991        H  0.15045691  0.18620475  0.62971101     0.17200
O992        O  0.11328030  0.17692159  0.58233818    -0.59700
H993        H  0.20587592  0.15440847  0.53303648     0.17200
O994        O  0.24349827  0.16333179  0.58051899    -0.59800
H995        H  0.25124397  0.18403566  0.57313246     0.44200
H996        H  0.10408028  0.15546221  0.58299567     0.44200
C997        C  0.12704401  0.29586741  0.70384249    -0.04900
C998        C  0.12628838  0.32810269  0.71153471    -0.32300
C999        C  0.10055211  0.34696705  0.70353207     0.37000
C1000       C  0.07447819  0.33381821  0.68793819    -0.05200
C1001       C  0.07591909  0.30224607  0.67821487    -0.32200
C1002       C  0.10194981  0.28326344  0.68601540     0.36900
H1003       H  0.14566110  0.33888095  0.72415662     0.17200
O1004       O  0.10043872  0.37800589  0.71242277    -0.59700
H1005       H  0.05596213  0.29169575  0.66631327     0.17200
O1006       O  0.10205710  0.25230356  0.67691291    -0.59800
H1007       H  0.09201990  0.24070006  0.69428920     0.44200
H1008       H  0.10869526  0.38968162  0.69417774     0.44200
C1009       C  0.33332364  0.03415155  0.63540990    -0.04900
C1010       C  0.34138898  0.03437895  0.66725268    -0.32300
C1011       C  0.33478899  0.06069024  0.68606240     0.37000
C1012       C  0.31893547  0.08692270  0.67325724    -0.05200
C1013       C  0.31365400  0.08761497  0.64082486    -0.32200
C1014       C  0.32091278  0.06170484  0.62198452     0.36900
H1015       H  0.35070371  0.01330071  0.67810002     0.17200
O1016       O  0.34195391  0.05953206  0.71723387    -0.59700
H1017       H  0.30301992  0.10806277  0.62995692     0.17200
O1018       O  0.31435712  0.06279915  0.59060396    -0.59800
H1019       H  0.29103745  0.06367118  0.58888099     0.44200
H1020       H  0.36455290  0.06561459  0.71862820     0.44200
C1021       C  0.40081868  0.33941191  0.99959624    -0.04900
C1022       C  0.41301874  0.35188951  0.02790485    -0.32300
C1023       C  0.42946957  0.38066757  0.02903239     0.37000
C1024       C  0.43407854  0.39843503  0.00179742    -0.05200
C1025       C  0.41994972  0.38785102  0.97411561    -0.32200
C1026       C  0.40325545  0.35912953  0.97284208     0.36900
H1027       H  0.41184074  0.33863734  0.04930268     0.17200
O1028       O  0.44216779  0.39061965  0.05680772    -0.59700
H1029       H  0.42312726  0.40126725  0.95288304     0.17200
O1030       O  0.39067214  0.35037975  0.94476303    -0.59800
H1031       H  0.36970455  0.36057135  0.94393028     0.44200
H1032       H  0.46275196  0.37970091  0.05850965     0.44200
C1033       C  0.37761466  0.28769882  0.94259769    -0.04900
C1034       C  0.39239157  0.27716494  0.91528097    -0.32300
C1035       C  0.37481383  0.26819895  0.88907494     0.37000
C1036       C  0.34147106  0.27016993  0.88935071    -0.05200
C1037       C  0.32672014  0.28259446  0.91606762    -0.32200
C1038       C  0.34447275  0.29102235  0.94262771     0.36900
H1039       H  0.41779909  0.27424649  0.91486372     0.17200
O1040       O  0.39067972  0.25781248  0.86316304    -0.59700
H1041       H  0.30126188  0.28470901  0.91681487     0.17200
O1042       O  0.32899501  0.30008336  0.96919971    -0.59800
H1043       H  0.32772925  0.32333844  0.96801499     0.44200
H1044       H  0.39569394  0.23536564  0.86740441     0.44200
C1045       C  0.01560308  0.61990112  0.38273149    -0.04900
C1046       C  0.03761871  0.59517268  0.37905524    -0.32300
C1047       C  0.03647381  0.56779070  0.39758559     0.37000
C1048       C  0.01274597  0.56413181  0.42023367    -0.05200
C1049       C  0.98945407  0.58748220  0.42253196    -0.32200
C1050       C  0.99071392  0.61506828  0.40446682     0.36900
H1051       H  0.05690916  0.59771932  0.36279743     0.17200
O1052       O  0.06004791  0.54581600  0.39499477    -0.59700
H1053       H  0.97087255  0.58500262  0.43966713     0.17200
O1054       O  0.96822967  0.63764292  0.40971272    -0.59800
H1055       H  0.97565486  0.64939030  0.42830399     0.44200
H1056       H  0.05512073  0.53383912  0.37575243     0.44200
C1057       C  0.69822618  0.62991570  0.05823438    -0.04900
C1058       C  0.70967405  0.61506657  0.08520569    -0.32300
C1059       C  0.72026750  0.63260368  0.11087713     0.37000
C1060       C  0.71891835  0.66588142  0.11045068    -0.05200
C1061       C  0.70392626  0.68054872  0.08495069    -0.32200
C1062       C  0.69376567  0.66285832  0.05894291     0.36900
H1063       H  0.71333304  0.58980585  0.08517288     0.17200
O1064       O  0.73228969  0.61682263  0.13616697    -0.59700
H1065       H  0.70162515  0.70594063  0.08438209     0.17200
O1066       O  0.68282461  0.67836754  0.03305954    -0.59800
H1067       H  0.65967243  0.68004814  0.03608656     0.44200
H1068       H  0.75433542  0.61157506  0.13051371     0.44200
C1069       C  0.91952799  0.69592761  0.31599817    -0.04900
C1070       C  0.92356067  0.70933749  0.34584695    -0.32300
C1071       C  0.94901533  0.70117703  0.36496756     0.37000
C1072       C  0.97178616  0.67945109  0.35455777    -0.05200
C1073       C  0.96758144  0.66522573  0.32519060    -0.32200
C1074       C  0.94184612  0.67334948  0.30592000     0.36900
H1075       H  0.90676452  0.72632035  0.35476736     0.17200
O1076       O  0.95177974  0.71524756  0.39367090    -0.59700
H1077       H  0.98499923  0.64872718  0.31654928     0.17200
O1078       O  0.93885901  0.65902071  0.27739647    -0.59800
H1079       H  0.95144686  0.67211844  0.26289708     0.44200
H1080       H  0.94108337  0.70076561  0.40838222     0.44200
C1081       C  0.63831713  0.98858982  0.36269124    -0.04900
C1082       C  0.61828009  0.01412794  0.37034732    -0.32300
C1083       C  0.59971479  0.01399905  0.39738752     0.37000
C1084       C  0.60056700  0.98815643  0.41779560    -0.05200
C1085       C  0.62221709  0.96387502  0.41193101    -0.32200
C1086       C  0.64122912  0.96411686  0.38501526     0.36900
H1087       H  0.61525494  0.03365096  0.35447436     0.17200
O1088       O  0.57991928  0.03888530  0.40322714    -0.59700
H1089       H  0.62356771  0.94403281  0.42772862     0.17200
O1090       O  0.66188021  0.93977535  0.38061138    -0.59800
H1091       H  0.68200317  0.94697072  0.39007182     0.44200
H1092       H  0.56124979  0.03541680  0.38964466     0.44200
C1093       C  0.66530219  0.92988270  0.31645942    -0.04900
C1094       C  0.65072477  0.90175178  0.30731199    -0.32300
C1095       C  0.66863902  0.87542590  0.29903926     0.37000
C1096       C  0.70197567  0.87683055  0.29959354    -0.05200
C1097       C  0.71653498  0.90401061  0.31154374    -0.32200
C1098       C  0.69847863  0.93055796  0.31957813     0.36900
H1099       H  0.62530909  0.90088558  0.30454632     0.17200
O1100       O  0.65318779  0.84869484  0.28954095    -0.59700
H1101       H  0.74201886  0.90532547  0.31306480     0.17200
O1102       O  0.71361724  0.95763593  0.32848434    -0.59800
H1103       H  0.71845026  0.96880690  0.30878414     0.44200
H1104       H  0.65077301  0.83585226  0.30865188     0.44200
C1105       C  0.63067766  0.17315525  0.18701744    -0.04900
C1106       C  0.60084446  0.18675466  0.18272887    -0.32300
C1107       C  0.57440508  0.16758339  0.17703028     0.37000
C1108       C  0.57788773  0.13451975  0.17502444    -0.05200
C1109       C  0.60817517  0.12151495  0.17604545    -0.32200
C1110       C  0.63442626  0.14051215  0.18174448     0.36900
H1111       H  0.59761993  0.21182199  0.18616541     0.17200
O1112       O  0.54502216  0.18108245  0.17618215    -0.59700
H1113       H  0.61121197  0.09620633  0.17478529     0.17200
O1114       O  0.66357463  0.12659916  0.18389672    -0.59800
H1115       H  0.67288298  0.12864298  0.16281933     0.44200
H1116       H  0.53809350  0.18212125  0.19821696     0.44200
C1117       C  0.69511947  0.34190135  0.06034844    -0.04900
C1118       C  0.70489956  0.35836147  0.08698985    -0.32300
C1119       C  0.71228333  0.34230744  0.11447082     0.37000
C1120       C  0.70970057  0.30922879  0.11575905    -0.05200
C1121       C  0.69575207  0.29323715  0.09059469    -0.32200
C1122       C  0.68872761  0.30936325  0.06279634     0.36900
H1123       H  0.71019119  0.38327381  0.08543522     0.17200
O1124       O  0.72399006  0.35898584  0.13935616    -0.59700
H1125       H  0.69276720  0.26792743  0.09151558     0.17200
O1126       O  0.67891850  0.29257452  0.03718221    -0.59800
H1127       H  0.69853376  0.28557795  0.02668237     0.44200
H1128       H  0.70523229  0.36492595  0.15181243     0.44200
C1129       C  0.69928630  0.09548437  0.29813051    -0.04900
C1130       C  0.71116602  0.07320018  0.31935360    -0.32300
C1131       C  0.69329639  0.04640627  0.32712531     0.37000
C1132       C  0.66328312  0.04182141  0.31353022    -0.05200
C1133       C  0.65002807  0.06619924  0.29583728    -0.32200
C1134       C  0.66773514  0.09256493  0.28779671     0.36900
H1135       H  0.73481900  0.07572761  0.32866350     0.17200
O1136       O  0.70647393  0.02377193  0.34579808    -0.59700
H1137       H  0.62652622  0.06367006  0.28610832     0.17200
O1138       O  0.65389137  0.11539379  0.26968216    -0.59800
H1139       H  0.65388516  0.10681442  0.24817591     0.44200
H1140       H  0.69960979  0.02916165  0.36720713     0.44200
C1141       C  0.20707366  0.59892298  0.16819542    -0.04900
C1142       C  0.21509751  0.59730461  0.13636672    -0.32300
C1143       C  0.21363845  0.56886749  0.12001515     0.37000
C1144       C  0.20343998  0.54140927  0.13515293    -0.05200
C1145       C  0.19302416  0.54339009  0.16617629    -0.32200
C1146       C  0.19457936  0.57187320  0.18267686     0.36900
H1147       H  0.22405463  0.61782925  0.12431376     0.17200
O1148       O  0.22406160  0.56762764  0.08974273    -0.59700
H1149       H  0.18600142  0.52224634  0.17844699     0.17200
O1150       O  0.18543911  0.57245893  0.21333183    -0.59800
H1151       H  0.20408806  0.56515499  0.22528766     0.44200
H1152       H  0.24739946  0.56933480  0.09100748     0.44200
C1153       C  0.32358720  0.69061500  0.10039407    -0.04900
C1154       C  0.35639313  0.69484137  0.10303642    -0.32300
C1155       C  0.37675354  0.68576179  0.07912114     0.37000
C1156       C  0.36461815  0.67280989  0.05135264    -0.05200
C1157       C  0.33222036  0.66578726  0.04969661    -0.32200
C1158       C  0.31168958  0.67453555  0.07402537     0.36900
H1159       H  0.36640700  0.70586410  0.12361324     0.17200
O1160       O  0.40840842  0.69180923  0.08216374    -0.59700
H1161       H  0.32239890  0.65565217  0.02866958     0.17200
O1162       O  0.28001151  0.66867419  0.07103057    -0.59800
H1163       H  0.27140483  0.68699042  0.05952419     0.44200
H1164       H  0.41783445  0.67172503  0.08932803     0.44200
C1165       C  0.12507370  0.67100089  0.30518355    -0.04900
C1166       C  0.13209755  0.66233559  0.33607065    -0.32300
C1167       C  0.10805993  0.65505556  0.35715974     0.37000
C1168       C  0.07639684  0.65657865  0.34754458    -0.05200
C1169       C  0.06955668  0.66203543  0.31581247    -0.32200
C1170       C  0.09372888  0.66935944  0.29464418     0.36900
H1171       H  0.15622240  0.66345501  0.34446781     0.17200
O1172       O  0.11550861  0.64999429  0.38789630    -0.59700
H1173       H  0.04524430  0.66402236  0.30818368     0.17200
O1174       O  0.08612367  0.67834286  0.26486712    -0.59800
H1175       H  0.08649760  0.65866781  0.25248008     0.44200
H1176       H  0.11451879  0.62683121  0.39063040     0.44200
C1177       C  0.37892353  0.97944040  0.38225156    -0.04900
C1178       C  0.38400278  0.95648901  0.40553251    -0.32300
C1179       C  0.41141022  0.95638944  0.42397393     0.37000
C1180       C  0.43480086  0.97957444  0.41989562    -0.05200
C1181       C  0.43102662  0.00124453  0.39540499    -0.32200
C1182       C  0.40348882  0.00131375  0.37668493     0.36900
H1183       H  0.36584080  0.93941695  0.41078814     0.17200
O1184       O  0.41431890  0.93442947  0.44723217    -0.59700
H1185       H  0.44894714  0.01897338  0.39152047     0.17200
O1186       O  0.40092367  0.02273232  0.35292388    -0.59800
H1187       H  0.40109895  0.04373875  0.36304348     0.44200
H1188       H  0.42756189  0.91750291  0.43826054     0.44200
C1189       C  0.32826575  0.92817068  0.35364587    -0.04900
C1190       C  0.30899041  0.90395191  0.36485993    -0.32300
C1191       C  0.30175302  0.87774333  0.34658511     0.37000
C1192       C  0.31476782  0.87436060  0.31630744    -0.05200
C1193       C  0.33635859  0.89734966  0.30609001    -0.32200
C1194       C  0.34316740  0.92405827  0.32452691     0.36900
H1195       H  0.29761949  0.90633697  0.38735799     0.17200
O1196       O  0.28126324  0.85594148  0.35864660    -0.59700
H1197       H  0.34733018  0.89512684  0.28340920     0.17200
O1198       O  0.36252141  0.94695643  0.31279724    -0.59800
H1199       H  0.38409056  0.94091627  0.31960679     0.44200
H1200       H  0.25988474  0.86397855  0.35358771     0.44200
C1201       C  0.16282466  0.17414337  0.44289921    -0.04900
C1202       C  0.19365266  0.16229514  0.44031247    -0.32300
C1203       C  0.21237583  0.16948220  0.41416850     0.37000
C1204       C  0.20023223  0.18881196  0.39007194    -0.05200
C1205       C  0.16852131  0.19849328  0.39194010    -0.32200
C1206       C  0.14996529  0.19119944  0.41778717     0.36900
H1207       H  0.20407914  0.14950929  0.45961711     0.17200
O1208       O  0.24267896  0.15822437  0.41295998    -0.59700
H1209       H  0.15798845  0.21251876  0.37356785     0.17200
O1210       O  0.11988593  0.20305688  0.41947197    -0.59800
H1211       H  0.10684451  0.18878317  0.40647202     0.44200
H1212       H  0.25558848  0.17395639  0.42433568     0.44200
C1213       C  0.41559561  0.16440257  0.20768910    -0.04900
C1214       C  0.41901621  0.13337406  0.21874598    -0.32300
C1215       C  0.44565459  0.11535180  0.21152220     0.37000
C1216       C  0.46959623  0.12800538  0.19265725    -0.05200
C1217       C  0.46554094  0.15824294  0.18006046    -0.32200
C1218       C  0.43901007  0.17653254  0.18761664     0.36900
H1219       H  0.40103862  0.12286213  0.23331039     0.17200
O1220       O  0.44807301  0.08520344  0.22282749    -0.59700
H1221       H  0.48377873  0.16844245  0.16562744     0.17200
O1222       O  0.43657415  0.20633735  0.17559973    -0.59800
H1223       H  0.44838774  0.21997774  0.19035583     0.44200
H1224       H  0.45031395  0.08737375  0.24576681     0.44200
C1225       C  0.22539149  0.37227595  0.17466163    -0.04900
C1226       C  0.20784670  0.39695974  0.18812382    -0.32300
C1227       C  0.20227314  0.42501694  0.17161277     0.37000
C1228       C  0.21399142  0.42855817  0.14111887    -0.05200
C1229       C  0.22967384  0.40330603  0.12704140    -0.32200
C1230       C  0.23512529  0.37535941  0.14321986     0.36900
H1231       H  0.19955766  0.39509191  0.21192369     0.17200
O1232       O  0.18741234  0.44960006  0.18627749    -0.59700
H1233       H  0.23927985  0.40591454  0.10377824     0.17200
O1234       O  0.25116749  0.35173457  0.12823141    -0.59800
H1235       H  0.23466603  0.33898540  0.11771770     0.44200
H1236       H  0.20450743  0.46184011  0.19641913     0.44200
C1237       C  0.34295285  0.27615584  0.10776034    -0.04900
C1238       C  0.37501667  0.26777580  0.10603533    -0.32300
C1239       C  0.39282830  0.27390727  0.07941628     0.37000
C1240       C  0.37876913  0.28810104  0.05316216    -0.05200
C1241       C  0.34737055  0.29850125  0.05531565    -0.32200
C1242       C  0.32946116  0.29273130  0.08237384     0.36900
H1243       H  0.38655584  0.25606096  0.12538733     0.17200
O1244       O  0.42381452  0.26456919  0.07877273    -0.59700
H1245       H  0.33614431  0.30951276  0.03539634     0.17200
O1246       O  0.29873891  0.30282544  0.08338754    -0.59800
H1247       H  0.28639493  0.28618873  0.07271620     0.44200
H1248       H  0.43591443  0.28289643  0.08665785     0.44200
C1249       C  0.32280769  0.09614092  0.32419442    -0.04900
C1250       C  0.32843247  0.06807544  0.30786770    -0.32300
C1251       C  0.33429444  0.03996869  0.32392439     0.37000
C1252       C  0.33513327  0.03972837  0.35681188    -0.05200
C1253       C  0.33171317  0.06814855  0.37305451    -0.32200
C1254       C  0.32563576  0.09623213  0.35704369     0.36900
H1255       H  0.32654109  0.06754541  0.28266460     0.17200
O1256       O  0.33594376  0.01236359  0.30741528    -0.59700
H1257       H  0.33191765  0.06822827  0.39833097     0.17200
O1258       O  0.32248360  0.12364840  0.37372732    -0.59800
H1259       H  0.30072099  0.12327501  0.38202986     0.44200
H1260       H  0.35819174  0.01086497  0.30043208     0.44200
C1261       C  0.02328026  0.36201017  0.35771662    -0.04900
C1262       C  0.00134712  0.35602446  0.38172414    -0.32300
C1263       C  0.00056538  0.37443877  0.40913382     0.37000
C1264       C  0.02217494  0.39928167  0.41342716    -0.05200
C1265       C  0.04567059  0.40366402  0.39090612    -0.32200
C1266       C  0.04618808  0.38583611  0.36329855     0.36900
H1267       H  0.98376555  0.33785043  0.37881983     0.17200
O1268       O  0.97714151  0.36941911  0.43054924    -0.59700
H1269       H  0.06270823  0.42245116  0.39389502     0.17200
O1270       O  0.06809179  0.39362635  0.34120701    -0.59800
H1271       H  0.05845905  0.41104776  0.32914775     0.44200
H1272       H  0.98421628  0.35098140  0.44287665     0.44200
C1273       C  0.90690828  0.29606471  0.31285611    -0.04900
C1274       C  0.90549413  0.32917701  0.31153593    -0.32300
C1275       C  0.93246473  0.34749437  0.31578567     0.37000
C1276       C  0.96161344  0.33291811  0.32144009    -0.05200
C1277       C  0.96260447  0.30013537  0.32615871    -0.32200
C1278       C  0.93542065  0.28163218  0.32187371     0.36900
H1279       H  0.88363296  0.34095130  0.30546174     0.17200
O1280       O  0.93079932  0.37934930  0.31083106    -0.59700
H1281       H  0.98506932  0.28854735  0.32998595     0.17200
O1282       O  0.93764813  0.24950594  0.32403965    -0.59800
H1283       H  0.94352206  0.24224749  0.30279688     0.44200
H1284       H  0.92862777  0.38876598  0.33191877     0.44200
C1285       C  0.07265029  0.33455582  0.30525237    -0.04900
C1286       C  0.07602285  0.30319336  0.31499700    -0.32300
C1287       C  0.10355801  0.28611023  0.30811452     0.37000
C1288       C  0.12830308  0.30055283  0.29134304    -0.05200
C1289       C  0.12524196  0.33244836  0.28307799    -0.32200
C1290       C  0.09768508  0.34920022  0.28951338     0.36900
H1291       H  0.05642109  0.29125004  0.32603022     0.17200
O1292       O  0.10509974  0.25488266  0.31610445    -0.59700
H1293       H  0.14404892  0.34450365  0.27090015     0.17200
O1294       O  0.09498716  0.37977506  0.27952165    -0.59800
H1295       H  0.09112534  0.37842728  0.25674510     0.44200
H1296       H  0.11036793  0.25466757  0.33862686     0.44200
C1297       C  0.45183731  0.81421274  0.84203815    -0.04900
C1298       C  0.45229944  0.81352798  0.80919517    -0.32300
C1299       C  0.42435469  0.80893672  0.79203824     0.37000
C1300       C  0.39551991  0.80535422  0.80782756    -0.05200
C1301       C  0.39488373  0.80980573  0.84041561    -0.32200
C1302       C  0.42270449  0.81418839  0.85744347     0.36900
H1303       H  0.47469286  0.81285237  0.79706490     0.17200
O1304       O  0.42597232  0.80501179  0.76032986    -0.59700
H1305       H  0.37286192  0.80783252  0.85305009     0.17200
O1306       O  0.42148799  0.81462762  0.88940965    -0.59800
H1307       H  0.42555991  0.83681340  0.89536654     0.44200
H1308       H  0.42914832  0.78207934  0.75710306     0.44200
C1309       C  0.56229981  0.79498203  0.84616076    -0.04900
C1310       C  0.56768414  0.80836201  0.81674041    -0.32300
C1311       C  0.59578877  0.80212558  0.80051037     0.37000
C1312       C  0.61917585  0.78261815  0.81404887    -0.05200
C1313       C  0.61417297  0.77095731  0.84432461    -0.32200
C1314       C  0.58612202  0.77681488  0.86017759     0.36900
H1315       H  0.54920303  0.82181781  0.80540465     0.17200
O1316       O  0.59966753  0.81454369  0.77125676    -0.59700
H1317       H  0.63171632  0.75636220  0.85570811     0.17200
O1318       O  0.58128243  0.76301121  0.88870326    -0.59800
H1319       H  0.59563635  0.77409233  0.90334687     0.44200
H1320       H  0.58922546  0.79945084  0.75693855     0.44200
C1321       C  0.51380750  0.84706399  0.87603939    -0.04900
C1322       C  0.49209255  0.87212360  0.87286382    -0.32300
C1323       C  0.49253671  0.89819303  0.89332297     0.37000
C1324       C  0.51529913  0.90012824  0.91727339    -0.05200
C1325       C  0.53816767  0.87649163  0.91924968    -0.32200
C1326       C  0.53760650  0.85027979  0.89934289     0.36900
H1327       H  0.47383651  0.87103376  0.85524838     0.17200
O1328       O  0.46987640  0.92106219  0.89044360    -0.59700
H1329       H  0.55590461  0.87762427  0.93748109     0.17200
O1330       O  0.55897228  0.82682554  0.90504812    -0.59800
H1331       H  0.57960999  0.83530154  0.89800413     0.44200
H1332       H  0.45194624  0.91365179  0.90332628     0.44200
C1333       C  0.20375229  0.42173425  0.85284864    -0.04900
C1334       C  0.21992602  0.39775527  0.86866297    -0.32300
C1335       C  0.22735796  0.36933174  0.85387411     0.37000
C1336       C  0.21835820  0.36413239  0.82246867    -0.05200
C1337       C  0.19940803  0.38705124  0.80770913    -0.32200
C1338       C  0.19209717  0.41562246  0.82267547     0.36900
H1339       H  0.22941529  0.40222083  0.89175364     0.17200
O1340       O  0.24428812  0.34727218  0.87022862    -0.59700
H1341       H  0.19145226  0.38352774  0.78393078     0.17200
O1342       O  0.17677186  0.43874025  0.80624748    -0.59800
H1343       H  0.15477877  0.43844295  0.81404612     0.44200
H1344       H  0.26660171  0.35398179  0.86857974     0.44200
C1345       C  0.21233060  0.59422766  0.82491371    -0.04900
C1346       C  0.22038740  0.59034102  0.85649336    -0.32300
C1347       C  0.21314442  0.56256796  0.87234581     0.37000
C1348       C  0.19865489  0.53741742  0.85643168    -0.05200
C1349       C  0.18750018  0.54244880  0.82591448    -0.32200
C1350       C  0.19391960  0.57080774  0.81022170     0.36900
H1351       H  0.23345806  0.60850409  0.86871745     0.17200
O1352       O  0.22410106  0.55860229  0.90221993    -0.59700
H1353       H  0.17680486  0.52321939  0.81305962     0.17200
O1354       O  0.18407754  0.57436892  0.77992977    -0.59800
H1355       H  0.20056877  0.56412496  0.76709559     0.44200
H1356       H  0.20565799  0.56272583  0.91576815     0.44200
C1357       C  0.15894311  0.47682310  0.88150467    -0.04900
C1358       C  0.13372206  0.49705066  0.87369043    -0.32300
C1359       C  0.10623782  0.49873713  0.89231454     0.37000
C1360       C  0.10338513  0.47987408  0.91926062    -0.05200
C1361       C  0.12782932  0.45860773  0.92606536    -0.32200
C1362       C  0.15544089  0.45750218  0.90816930     0.36900
H1363       H  0.13565089  0.51235019  0.85367228     0.17200
O1364       O  0.08332205  0.52039813  0.88519915    -0.59700
H1365       H  0.12632770  0.44401559  0.94672565     0.17200
O1366       O  0.17977353  0.43892314  0.91844821    -0.59800
H1367       H  0.19288910  0.45284661  0.93181672     0.44200
H1368       H  0.07186051  0.51149216  0.86706706     0.44200
C1369       C  0.58032136  0.13247584  0.82722047    -0.04900
C1370       C  0.60972033  0.11753054  0.82576062    -0.32300
C1371       C  0.63718095  0.13495341  0.82040868     0.37000
C1372       C  0.63558824  0.16789811  0.81663028    -0.05200
C1373       C  0.60680445  0.18329490  0.82160431    -0.32200
C1374       C  0.57920879  0.16574757  0.82690158     0.36900
H1375       H  0.61101138  0.09204664  0.82563545     0.17200
O1376       O  0.66543955  0.11944186  0.81742146    -0.59700
H1377       H  0.60522590  0.20859647  0.81884067     0.17200
O1378       O  0.55080434  0.18110441  0.82762848    -0.59800
H1379       H  0.54631708  0.18425212  0.85008363     0.44200
H1380       H  0.66536221  0.11060303  0.79599270     0.44200
C1381       C  0.46955613  0.12577438  0.80655378    -0.04900
C1382       C  0.44785390  0.11161249  0.78615727    -0.32300
C1383       C  0.41914472  0.12606727  0.77899382     0.37000
C1384       C  0.41165571  0.15581086  0.79189838    -0.05200
C1385       C  0.43250870  0.16895002  0.81399102    -0.32200
C1386       C  0.46125738  0.15417022  0.82135012     0.36900
H1387       H  0.45377176  0.08961936  0.77472299     0.17200
O1388       O  0.39917664  0.11120658  0.75850131    -0.59700
H1389       H  0.42697973  0.19119004  0.82510600     0.17200
O1390       O  0.48164613  0.16839121  0.84186728    -0.59800
H1391       H  0.48851441  0.18805753  0.83143790     0.44200
H1392       H  0.38633538  0.09682259  0.77151626     0.44200
C1393       C  0.51561005  0.06428896  0.91755960    -0.04900
C1394       C  0.49281418  0.06057456  0.89414265    -0.32300
C1395       C  0.49375977  0.07820445  0.86650647     0.37000
C1396       C  0.51763749  0.10125913  0.86172649    -0.05200
C1397       C  0.53910980  0.10648018  0.88648609    -0.32200
C1398       C  0.53842598  0.08811259  0.91392483     0.36900
H1399       H  0.47519549  0.04223646  0.89641227     0.17200
O1400       O  0.47306573  0.07007559  0.84325825    -0.59700
H1401       H  0.55755135  0.12385711  0.88406838     0.17200
O1402       O  0.56167828  0.09194503  0.93589794    -0.59800
H1403       H  0.55517955  0.11055278  0.94831156     0.44200
H1404       H  0.45217500  0.07783776  0.85029453     0.44200
C1405       C  0.86792109  0.54131937  0.81545966    -0.04900
C1406       C  0.83728534  0.54416343  0.82763311    -0.32300
C1407       C  0.81818574  0.57024545  0.81996180     0.37000
C1408       C  0.82961818  0.59371136  0.79951366    -0.05200
C1409       C  0.86124861  0.59191650  0.78980766    -0.32200
C1410       C  0.88033847  0.56643904  0.79797050     0.36900
H1411       H  0.82725293  0.52503936  0.84103337     0.17200
O1412       O  0.78810991  0.57182156  0.83157009    -0.59700
H1413       H  0.87126723  0.61010177  0.77516591     0.17200
O1414       O  0.91046417  0.56499335  0.78641161    -0.59800
H1415       H  0.92412022  0.57302470  0.80344213     0.44200
H1416       H  0.77487606  0.56008296  0.81641187     0.44200
C1417       C  0.83705074  0.37295996  0.80754955    -0.04900
C1418       C  0.82053684  0.39961912  0.81802493    -0.32300
C1419       C  0.83665874  0.42764352  0.82511115     0.37000
C1420       C  0.86981832  0.42899123  0.82247765    -0.05200
C1421       C  0.88640816  0.40154449  0.81490252    -0.32200
C1422       C  0.87042082  0.37384633  0.80716706     0.36900
H1423       H  0.79499488  0.39936291  0.81890430     0.17200
O1424       O  0.81964057  0.45444111  0.83112898    -0.59700
H1425       H  0.91183319  0.40235207  0.81232613     0.17200
O1426       O  0.88775018  0.34788163  0.79878388    -0.59800
H1427       H  0.89364450  0.35138530  0.77666783     0.44200
H1428       H  0.81279374  0.45249608  0.85311369     0.44200
C1429       C  0.89751076  0.48918406  0.86449557    -0.04900
C1430       C  0.92204724  0.51130870  0.86857601    -0.32300
C1431       C  0.94183339  0.51083290  0.89494240     0.37000
C1432       C  0.93764515  0.48808693  0.91848388    -0.05200
C1433       C  0.91196946  0.46728357  0.91571004    -0.32200
C1434       C  0.89205530  0.46766895  0.88914116     0.36900
H1435       H  0.92716848  0.52822471  0.85043516     0.17200
O1436       O  0.96567283  0.53256967  0.89734893    -0.59700
H1437       H  0.90795117  0.44990319  0.93373059     0.17200
O1438       O  0.86711553  0.44719518  0.88775661    -0.59800
H1439       H  0.87650038  0.42581713  0.88774515     0.44200
H1440       H  0.98178530  0.52595254  0.88195082     0.44200
C1441       C  0.87131519  0.42611585  0.18306714    -0.04900
C1442       C  0.88586207  0.39875492  0.19440777    -0.32300
C1443       C  0.86789623  0.37328139  0.20474922     0.37000
C1444       C  0.83469220  0.37403921  0.20240605    -0.05200
C1445       C  0.82025350  0.39964301  0.18745089    -0.32200
C1446       C  0.83825519  0.42597003  0.17851549     0.36900
H1447       H  0.91112721  0.39848979  0.19842833     0.17200
O1448       O  0.88305583  0.34787141  0.21770343    -0.59700
H1449       H  0.79482826  0.40028044  0.18482797     0.17200
O1450       O  0.82304933  0.45237557  0.16794050    -0.59800
H1451       H  0.81401918  0.46233424  0.18679517     0.44200
H1452       H  0.88797062  0.35420918  0.23949080     0.44200
C1453       C  0.87578239  0.53947423  0.18730311    -0.04900
C1454       C  0.89158256  0.56321569  0.20387588    -0.32300
C1455       C  0.87712384  0.59205821  0.21017462     0.37000
C1456       C  0.84600722  0.59797290  0.19968031    -0.05200
C1457       C  0.83126850  0.57520774  0.18063973    -0.32200
C1458       C  0.84585267  0.54605293  0.17458850     0.36900
H1459       H  0.91463974  0.55855502  0.21386682     0.17200
O1460       O  0.89324468  0.61355274  0.22802392    -0.59700
H1461       H  0.80780729  0.57938275  0.17144145     0.17200
O1462       O  0.82986366  0.52349709  0.15796769    -0.59800
H1463       H  0.81189894  0.51726365  0.17132398     0.44200
H1464       H  0.90586755  0.62596714  0.21304600     0.44200
C1465       C  0.94039677  0.48501471  0.08520469    -0.04900
C1466       C  0.91496385  0.46389230  0.08813488    -0.32300
C1467       C  0.89542136  0.46401945  0.11491527     0.37000
C1468       C  0.90111031  0.48546866  0.13963270    -0.05200
C1469       C  0.92562996  0.50761763  0.13553272    -0.32200
C1470       C  0.94471208  0.50767424  0.10885751     0.36900
H1471       H  0.91075054  0.44662372  0.06998545     0.17200
O1472       O  0.87061094  0.44341644  0.11641560    -0.59700
H1473       H  0.93119254  0.52435293  0.15377264     0.17200
O1474       O  0.96859543  0.52933775  0.10677151    -0.59800
H1475       H  0.95997060  0.54654926  0.09369900     0.44200
H1476       H  0.88022206  0.42211575  0.11737157     0.44200
C1477       C  0.57361628  0.79739703  0.15025763    -0.04900
C1478       C  0.57944495  0.81042555  0.17981786    -0.32300
C1479       C  0.60784955  0.80428168  0.19566304     0.37000
C1480       C  0.63126478  0.78525391  0.18162261    -0.05200
C1481       C  0.62620399  0.77458162  0.15091331    -0.32200
C1482       C  0.59763208  0.78009655  0.13552913     0.36900
H1483       H  0.56078522  0.82290392  0.19188427     0.17200
O1484       O  0.61177119  0.81591718  0.22527454    -0.59700
H1485       H  0.64392278  0.76064564  0.13905484     0.17200
O1486       O  0.59258725  0.76677283  0.10676665    -0.59800
H1487       H  0.58731728  0.74442575  0.11092446     0.44200
H1488       H  0.60252924  0.79976276  0.23923642     0.44200
C1489       C  0.45922757  0.81048279  0.15174418    -0.04900
C1490       C  0.43327608  0.80206790  0.13334388    -0.32300
C1491       C  0.40378493  0.79694766  0.14690856     0.37000
C1492       C  0.39985197  0.80020488  0.17947910    -0.05200
C1493       C  0.42465825  0.81285029  0.19721182    -0.32200
C1494       C  0.45438155  0.81778135  0.18352959     0.36900
H1495       H  0.43668347  0.79591642  0.10903814     0.17200
O1496       O  0.37953590  0.78629795  0.12844932    -0.59700
H1497       H  0.42191080  0.81612630  0.22211895     0.17200
O1498       O  0.47942495  0.82614704  0.20211979    -0.59800
H1499       H  0.48739086  0.80615299  0.21109696     0.44200
H1500       H  0.36908432  0.80557738  0.12044171     0.44200
C1501       C  0.52013011  0.84299369  0.11972214    -0.04900
C1502       C  0.50095382  0.86925297  0.12642090    -0.32300
C1503       C  0.49994239  0.89564801  0.10639230     0.37000
C1504       C  0.51899238  0.89681059  0.07938645    -0.05200
C1505       C  0.53913206  0.87119131  0.07351734    -0.32200
C1506       C  0.53917374  0.84437711  0.09263614     0.36900
H1507       H  0.48595847  0.86900429  0.14678597     0.17200
O1508       O  0.47946343  0.91973854  0.11294985    -0.59700
H1509       H  0.55384826  0.87127080  0.05288819     0.17200
O1510       O  0.55655609  0.81886800  0.08331093    -0.59800
H1511       H  0.54180524  0.80573274  0.07084815     0.44200
H1512       H  0.45951934  0.91403263  0.10218145     0.44200
C1513       C  0.83419484  0.84295618  0.44379883    -0.04900
C1514       C  0.83791828  0.81004712  0.44339956    -0.32300
C1515       C  0.83292332  0.79273722  0.41584851     0.37000
C1516       C  0.82352702  0.80836491  0.38833235    -0.05200
C1517       C  0.82227862  0.84147844  0.38840924    -0.32200
C1518       C  0.82750193  0.85867873  0.41577232     0.36900
H1519       H  0.84234397  0.79752407  0.46498010     0.17200
O1520       O  0.83472689  0.76051899  0.41677759    -0.54900
H1521       H  0.81628894  0.85418109  0.36730515     0.17200
O1522       O  0.82461431  0.89086227  0.41531827    -0.59800
H1523       H  0.80162569  0.89507866  0.41428644     0.44200
H1524       H  0.85742009  0.75558130  0.41420311     0.44200
C1525       C  0.82417141  0.83893448  0.55411615    -0.04900
C1526       C  0.83404048  0.80736677  0.55552287    -0.32300
C1527       C  0.82728006  0.78869465  0.58178428     0.37000
C1528       C  0.81011850  0.80154637  0.60698346    -0.05200
C1529       C  0.80236775  0.83378037  0.60615812    -0.32200
C1530       C  0.80909877  0.85227437  0.58013472     0.36900
H1531       H  0.84517491  0.79659724  0.53544158     0.17200
O1532       O  0.83600060  0.75761017  0.58171800    -0.59700
H1533       H  0.79036910  0.84484218  0.62558294     0.17200
O1534       O  0.80029947  0.88340280  0.58000226    -0.59800
H1535       H  0.77691955  0.88340431  0.57889731     0.44200
H1536       H  0.85773878  0.75734123  0.59022133     0.44200
C1537       C  0.87658427  0.86603304  0.50416959    -0.04900
C1538       C  0.89936172  0.86013610  0.48087518    -0.32300
C1539       C  0.92748301  0.87782572  0.47914734     0.37000
C1540       C  0.93371902  0.90162385  0.50122903    -0.05200
C1541       C  0.91263203  0.90558653  0.52601611    -0.32200
C1542       C  0.88429927  0.88866392  0.52745233     0.36900
H1543       H  0.89466919  0.84292129  0.46286929     0.17200
O1544       O  0.94747796  0.87335192  0.45444803    -0.59700
H1545       H  0.91714044  0.92366791  0.54332547     0.17200
O1546       O  0.86347581  0.89643375  0.55059409    -0.59800
H1547       H  0.85146265  0.91472463  0.54244510     0.44200
H1548       H  0.96030331  0.85467805  0.46005355     0.44200
C1549       C  0.83499142  0.13162702  0.56016606    -0.04900
C1550       C  0.85151822  0.15964906  0.56603493    -0.32300
C1551       C  0.84892181  0.17495348  0.59507636     0.37000
C1552       C  0.82977477  0.16195668  0.61878802    -0.05200
C1553       C  0.81555130  0.13252501  0.61337295    -0.32200
C1554       C  0.81793187  0.11754672  0.58452541     0.36900
H1555       H  0.86435014  0.17099377  0.54734032     0.17200
O1556       O  0.86423886  0.20303959  0.59950069    -0.59700
H1557       H  0.80119983  0.12145344  0.63111335     0.17200
O1558       O  0.80124208  0.09031523  0.57944340    -0.59800
H1559       H  0.81297936  0.07368381  0.59073819     0.44200
H1560       H  0.84983205  0.21926372  0.59091930     0.44200
C1561       C  0.83925734  0.13053680  0.44604450    -0.04900
C1562       C  0.82708454  0.11376289  0.42054516    -0.32300
C1563       C  0.81908136  0.12919883  0.39279748     0.37000
C1564       C  0.82393001  0.16194080  0.38978972    -0.05200
C1565       C  0.83991364  0.17795976  0.41377088    -0.32200
C1566       C  0.84720315  0.16255159  0.44195607     0.36900
H1567       H  0.82050758  0.08927239  0.42333453     0.17200
O1568       O  0.80570215  0.11217312  0.36895890    -0.59700
H1569       H  0.84452308  0.20294618  0.41164773     0.17200
O1570       O  0.85911170  0.17971539  0.46642554    -0.59800
H1571       H  0.84041978  0.18854513  0.47724794     0.44200
H1572       H  0.78330177  0.10928328  0.37496609     0.44200
C1573       C  0.87956564  0.10289966  0.50571597    -0.04900
C1574       C  0.90281945  0.10752710  0.48265384    -0.32300
C1575       C  0.92994764  0.08823907  0.48109136     0.37000
C1576       C  0.93464933  0.06395759  0.50300206    -0.05200
C1577       C  0.91265896  0.06052636  0.52705182    -0.32200
C1578       C  0.88525939  0.07898075  0.52822027     0.36900
H1579       H  0.89956702  0.12542014  0.46505438     0.17200
O1580       O  0.95065181  0.09196689  0.45686655    -0.59700
H1581       H  0.91577029  0.04189411  0.54403571     0.17200
O1582       O  0.86323468  0.07149522  0.55027143    -0.59800
H1583       H  0.84955640  0.05541978  0.54033418     0.44200
H1584       H  0.96503505  0.10904291  0.46353292     0.44200
C1585       C  0.16146491  0.79683326  0.55193077    -0.04900
C1586       C  0.14325949  0.78860802  0.57795765    -0.32300
C1587       C  0.15758591  0.77928868  0.60596631     0.37000
C1588       C  0.19074122  0.77875898  0.60869628    -0.05200
C1589       C  0.20895568  0.78990187  0.58373952    -0.32200
C1590       C  0.19459266  0.79845600  0.55533481     0.36900
H1591       H  0.11785579  0.78670375  0.57567745     0.17200
O1592       O  0.13893546  0.77036710  0.63051886    -0.59700
H1593       H  0.23445992  0.79001189  0.58554953     0.17200
O1594       O  0.21326289  0.80474782  0.53004210    -0.59800
H1595       H  0.22135027  0.82635780  0.53346668     0.44200
H1596       H  0.13267822  0.74835334  0.62593501     0.44200
C1597       C  0.16551170  0.79325377  0.43908512    -0.04900
C1598       C  0.15081475  0.77755178  0.41419941    -0.32300
C1599       C  0.16714026  0.77072654  0.38676353     0.37000
C1600       C  0.19909163  0.77978899  0.38342507    -0.05200
C1601       C  0.21296578  0.79802627  0.40723667    -0.32200
C1602       C  0.19650923  0.80449068  0.43505191     0.36900
H1603       H  0.12704691  0.76855366  0.41690792     0.17200
O1604       O  0.15178545  0.75402201  0.36389553    -0.59700
H1605       H  0.23712606  0.80599654  0.40499515     0.17200
O1606       O  0.21170916  0.81974677  0.45894238    -0.59800
H1607       H  0.22592414  0.80375966  0.46830070     0.44200
H1608       H  0.14163707  0.77010174  0.35048715     0.44200
C1609       C  0.13758687  0.84148482  0.49168389    -0.04900
C1610       C  0.11478453  0.84711233  0.46820817    -0.32300
C1611       C  0.09595998  0.87440845  0.46814923     0.37000
C1612       C  0.09929717  0.89727943  0.49179358    -0.05200
C1613       C  0.12329718  0.89290470  0.51412986    -0.32200
C1614       C  0.14245256  0.86561454  0.51402468     0.36900
H1615       H  0.11012670  0.82948587  0.45055043     0.17200
O1616       O  0.07370938  0.87826335  0.44513960    -0.59700
H1617       H  0.12654312  0.91025892  0.53239106     0.17200
O1618       O  0.16539476  0.86264004  0.53633485    -0.59800
H1619       H  0.18409292  0.87358379  0.52762687     0.44200
H1620       H  0.05663315  0.86309480  0.45009028     0.44200
loop_ 
_geom_bond_atom_site_label_1 
_geom_bond_atom_site_label_2 
_geom_bond_distance 
_geom_bond_site_symmetry_2 
_ccdc_geom_bond_type 
N1            C5   1.370       .  A
N1            C2   1.371       .  A
N1         C1609   1.467       .  S
C2            C3   1.382       .  A
C2         C1585   1.484       .  S
C3            C4   1.357       .  A
C3            H6   1.083       .  S
C4            C5   1.379       .  A
C4            H7   1.083       .  S
C5         C1597   1.486       .  S
N8           C12   1.369       .  A
N8            C9   1.367       .  A
N8         C1573   1.464       .  S
C9           C10   1.379       .  A
C9         C1549   1.480       .  S
C10          C11   1.358       .  A
C10          H13   1.083       .  S
C11          C12   1.382       .  A
C11          H14   1.083       .  S
C12        C1561   1.480       .  S
N15          C19   1.364       .  A
N15          C16   1.364       .  A
N15        C1537   1.463       .  S
C16          C17   1.380       .  A
C16        C1525   1.482       .  S
C17          C18   1.361       .  A
C17          H20   1.082       .  S
C18          C19   1.381       .  A
C18          H21   1.083       .  S
C19        C1513   1.479       .  S
N22          C26   1.366       .  A
N22          C23   1.364       .  A
N22        C1501   1.461       .  S
C23          C24   1.380       .  A
C23        C1489   1.474       .  S
C24          C25   1.360       .  A
C24          H27   1.083       .  S
C25          C26   1.380       .  A
C25          H28   1.083       .  S
C26        C1477   1.475       .  S
N29          C33   1.370       .  A
N29          C30   1.369       .  A
N29        C1468   1.466       .  S
C30          C31   1.378       .  A
C30        C1453   1.483       .  S
C31          C32   1.355       .  A
C31          H34   1.083       .  S
C32          C33   1.384       .  A
C32          H35   1.083       .  S
C33        C1441   1.484       .  S
N36          C40   1.369       .  A
N36          C37   1.367       .  A
N36        C1429   1.465       .  S
C37          C38   1.381       .  A
C37        C1420   1.477       .  S
C38          C39   1.356       .  A
C38          H41   1.083       .  S
C39          C40   1.380       .  A
C39          H42   1.083       .  S
C40        C1405   1.484       .  S
N43          C47   1.367       .  A
N43          C44   1.366       .  A
N43        C1396   1.467       .  S
C44          C45   1.380       .  A
C44        C1381   1.484       .  S
C45          C46   1.360       .  A
C45          H48   1.083       .  S
C46          C47   1.382       .  A
C46          H49   1.083       .  S
C47        C1369   1.481       .  S
N50          C54   1.368       .  A
N50          C51   1.367       .  A
N50        C1357   1.460       .  S
C51          C52   1.382       .  A
C51        C1348   1.479       .  S
C52          C53   1.357       .  A
C52          H55   1.083       .  S
C53          C54   1.378       .  A
C53          H56   1.083       .  S
C54        C1333   1.479       .  S
N57          C61   1.365       .  A
N57          C58   1.364       .  A
N57        C1321   1.466       .  S
C58          C59   1.378       .  A
C58        C1309   1.477       .  S
C59          C60   1.360       .  A
C59          H62   1.083       .  S
C60          C61   1.382       .  A
C60          H63   1.083       .  S
C61        C1297   1.476       .  S
N64          C68   1.364       .  A
N64          C65   1.364   1_455  A
N64        C1261   1.465       .  S
C65          C66   1.382       .  A
C65        C1276   1.475       .  S
C66          C67   1.360   1_655  A
C66          H69   1.083       .  S
C67          C68   1.379       .  A
C67          H70   1.083       .  S
C68        C1285   1.476       .  S
O71         Mg73   2.160       .  S
O71         Mg79   2.174       .  S
O71         C106   1.235       .  S
C72         H111   1.081       .  S
C72          O85   1.234       .  S
C72         O109   1.269       .  A
Mg73        O102   2.166       .  S
Mg73        O117   2.285       .  S
Mg73        O113   2.290       .  S
Mg73         O84   2.302       .  S
O74        Mg116   2.164       .  S
O74         Mg99   2.150       .  S
O74          C95   1.235       .  S
O75         C106   1.270       .  A
O75         Mg99   2.305       .  S
C76        C1288   1.487       .  S
C76          O78   1.272       .  A
C76          O90   1.276       .  A
O77         C105   1.268       .  A
O77         Mg79   2.292       .  S
O78        Mg110   2.270       .  S
Mg79         O85   2.154       .  S
Mg79         O93   2.273       .  S
Mg79         O81   2.286       .  S
C80        C1225   1.492       .  S
C80         O118   1.274       .  A
C80          O86   1.272       .  A
O81          C88   1.274       .  A
H82          C95   1.081       .  S
C83         H108   1.081       .  S
C83          O97   1.235       .  S
C83          O98   1.269       .  A
O84         C107   1.269       .  A
O85         Mg99   2.157       .  S
O86        Mg116   2.276       .  S
C87        C1237   1.494       .  S
C87         O100   1.273       .  A
C87          O92   1.276       .  A
C88        C1213   1.491       .  S
C88         O115   1.273       .  A
Mg89         O96   2.159       .  S
Mg89         O97   2.165       .  S
Mg89         O90   2.291       .  S
Mg89         O91   2.301       .  S
Mg89        O118   2.297       .  S
O91          C95   1.270       .  A
O92         Mg99   2.298       .  S
O93         C112   1.272       .  A
O94         C114   1.276       .  A
O94        Mg110   2.293       .  S
O96        Mg110   2.164       .  S
O96         C107   1.234       .  S
O97        Mg116   2.154       .  S
O98        Mg110   2.299       .  S
Mg99        O115   2.283       .  S
O100       Mg116   2.288       .  S
H101        C106   1.081       .  S
O102       Mg110   2.145       .  S
O102        C105   1.234       .  S
H103        C105   1.081       .  S
H104        C107   1.081       .  S
O109       Mg116   2.299       .  S
C112       C1249   1.481       .  S
C112        O117   1.273       .  A
O113        C114   1.274       .  A
C114       C1204   1.495       .  S
N119        C123   1.367       .  A
N119        C120   1.366   1_565  A
N119       C1177   1.462       .  S
C120        C121   1.380       .  A
C120       C1252   1.476       .  S
C121        C122   1.359   1_545  A
C121        H124   1.083       .  S
C122        C123   1.382       .  A
C122        H125   1.082       .  S
C123       C1189   1.490       .  S
O126       Mg128   2.179       .  S
O126       Mg134   2.148       .  S
O126        C161   1.237       .  S
C127        H166   1.081       .  S
C127        O140   1.232       .  S
C127        O164   1.267       .  A
Mg128       O157   2.175       .  S
Mg128       O172   2.347       .  S
Mg128       O168   2.322       .  S
Mg128       O139   2.308       .  S
O129       Mg171   2.189       .  S
O129       Mg154   2.159       .  S
O129        C150   1.235       .  S
O130        C161   1.274       .  A
O130       Mg154   2.324       .  S
C131       C1600   1.493       .  S
C131        O133   1.271       .  A
C131        O145   1.269       .  A
O132        C160   1.270       .  A
O132       Mg134   2.298       .  S
O133       Mg165   2.299       .  S
Mg134       O140   2.153       .  S
Mg134       O148   2.234       .  S
Mg134       O136   2.283       .  S
C135       C1165   1.476       .  S
C135        O173   1.268       .  A
C135        O141   1.276       .  A
O136        C143   1.271       .  A
H137        C150   1.081       .  S
C138        H163   1.081       .  S
C138        O152   1.236       .  S
C138        O153   1.272       .  A
O139        C162   1.269       .  A
O140       Mg154   2.147       .  S
O141       Mg171   2.338       .  S
C142       C1141   1.486       .  S
C142        O155   1.274       .  A
C142        O147   1.273       .  A
C143       C1153   1.489       .  S
C143        O170   1.270       .  A
Mg144       O151   2.157       .  S
Mg144       O152   2.142       .  S
Mg144       O145   2.276       .  S
Mg144       O146   2.300       .  S
Mg144       O173   2.238       .  S
O146        C150   1.270       .  A
O147       Mg154   2.275       .  S
O148        C167   1.269       .  A
O149        C169   1.272       .  A
O149       Mg165   2.269       .  S
O151       Mg165   2.148       .  S
O151        C162   1.233       .  S
O152       Mg171   2.158       .  S
O153       Mg165   2.314       .  S
Mg154       O170   2.298       .  S
O155       Mg171   2.282       .  S
H156        C161   1.081       .  S
O157       Mg165   2.155       .  S
O157        C160   1.235       .  S
H158        C160   1.081       .  S
H159        C162   1.081       .  S
O164       Mg171   2.299       .  S
C167       C1492   1.483       .  S
C167        O172   1.279       .  A
O168        C169   1.278       .  A
C169       C1192   1.498       .  S
O174       Mg176   2.185       .  S
O174       Mg182   2.147       .  S
O174        C209   1.236       .  S
C175        H214   1.081       .  S
C175        O188   1.231       .  S
C175        O212   1.266       .  A
Mg176       O205   2.162       .  S
Mg176       O220   2.309       .  S
Mg176       O216   2.256       .  S
Mg176       O187   2.294       .  S
O177       Mg219   2.168       .  S
O177       Mg202   2.159       .  S
O177        C198   1.235       .  S
O178        C209   1.273       .  A
O178       Mg202   2.321       .  S
C179       C1105   1.480       .  S
C179        O181   1.273       .  A
C179        O193   1.271       .  A
O180        C208   1.271       .  A
O180       Mg182   2.306       .  S
O181       Mg213   2.297       .  S
Mg182       O188   2.147       .  S
Mg182       O196   2.242       .  S
Mg182       O184   2.260       .  S
C183       C1129   1.483       .  S
C183        O221   1.266       .  A
C183        O189   1.273       .  A
O184        C191   1.270       .  A
H185        C198   1.081       .  S
C186        H211   1.081       .  S
C186        O200   1.235       .  S
C186        O201   1.271       .  A
O187        C210   1.266       .  A
O188       Mg202   2.163       .  S
O189       Mg219   2.316       .  S
C190       C1564   1.487       .  S
C190        O203   1.274       .  A
C190        O195   1.280       .  A
C191       C1273   1.484       .  S
C191        O218   1.274       .  A
Mg192       O199   2.138       .  S
Mg192       O200   2.158       .  S
Mg192       O193   2.266       .  S
Mg192       O194   2.298       .  S
Mg192       O221   2.224       .  S
O194        C198   1.270       .  A
O195       Mg202   2.344       .  S
O196        C215   1.267       .  A
O197        C217   1.277       .  A
O197       Mg213   2.330       .  S
O199       Mg213   2.164       .  S
O199        C210   1.231       .  S
O200       Mg219   2.183       .  S
O201       Mg213   2.314       .  S
Mg202       O218   2.305       .  S
O203       Mg219   2.263       .  S
H204        C209   1.081       .  S
O205       Mg213   2.159       .  S
O205        C208   1.236       .  S
H206        C208   1.081       .  S
H207        C210   1.081       .  S
O212       Mg219   2.295       .  S
C215       C1444   1.481       .  S
C215        O220   1.271       .  A
O216        C217   1.273       .  A
C217       C1120   1.481       .  S
N222        C226   1.369       .  A
N222        C223   1.366   1_565  A
N222       C1081   1.466       .  S
C223        C224   1.380   1_545  A
C223       C1132   1.485       .  S
C224        C225   1.357       .  A
C224        H227   1.083   1_565  S
C225        C226   1.382       .  A
C225        H228   1.083       .  S
C226       C1093   1.482       .  S
O229       Mg231   2.170       .  S
O229       Mg237   2.174       .  S
O229        C264   1.235       .  S
C230        H269   1.081       .  S
C230        O243   1.234       .  S
C230        O267   1.269       .  A
Mg231       O260   2.163       .  S
Mg231       O275   2.287       .  S
Mg231       O271   2.296       .  S
Mg231       O242   2.307       .  S
O232       Mg274   2.169       .  S
O232       Mg257   2.151       .  S
O232        C253   1.235       .  S
O233        C264   1.270       .  A
O233       Mg257   2.308       .  S
C234       C1456   1.493       .  S
C234        O236   1.275       .  A
C234        O248   1.276       .  A
O235        C263   1.269       .  A
O235       Mg237   2.300       .  S
O236       Mg268   2.283       .  S
Mg237       O243   2.154       .  S
Mg237       O251   2.275       .  S
Mg237       O239   2.288       .  S
C238       C1069   1.498       .  S
C238        O276   1.277       .  A
C238        O244   1.273       .  A
O239        C246   1.274       .  A
H240        C253   1.081       .  S
C241        H266   1.081       .  S
C241        O255   1.234       .  S
C241        O256   1.269       .  A
O242        C265   1.270       .  A
O243       Mg257   2.164       .  S
O244       Mg274   2.280       .  S
C245       C1516   1.487       .  S
C245        O258   1.272       .  A
C245        O250   1.274       .  A
C246       C1096   1.487       .  S
C246        O273   1.272       .  A
Mg247       O254   2.177       .  S
Mg247       O255   2.158       .  S
Mg247       O248   2.295       .  S
Mg247       O249   2.304       .  S
Mg247       O276   2.319       .  S
O249        C253   1.270       .  A
O250       Mg257   2.289       .  S
O251        C270   1.271       .  A
O252        C272   1.278       .  A
O252       Mg268   2.314       .  S
O254       Mg268   2.175       .  S
O254        C265   1.234       .  S
O255       Mg274   2.154       .  S
O256       Mg268   2.298       .  S
Mg257       O273   2.284       .  S
O258       Mg274   2.286       .  S
H259        C264   1.081       .  S
O260       Mg268   2.156       .  S
O260        C263   1.234       .  S
H261        C263   1.081       .  S
H262        C265   1.081       .  S
O267       Mg274   2.295       .  S
C270       C1480   1.491       .  S
C270        O275   1.274       .  A
O271        C272   1.274       .  A
C272       C1060   1.498       .  S
N277        C281   1.364       .  A
N277        C278   1.363       .  A
N277       C1045   1.467       .  S
C278        C279   1.382       .  A
C278       C1168   1.481       .  S
C279        C280   1.363       .  A
C279        H282   1.083       .  S
C280        C281   1.382       .  A
C280        H283   1.082       .  S
C281       C1072   1.490   1_455  S
N284        C288   1.374       .  A
N284        C285   1.371   1_556  A
N284       C1021   1.478       .  S
C285        C286   1.379       .  A
C285       C1240   1.489       .  S
C286        C287   1.356   1_554  A
C286        H289   1.082       .  S
C287        C288   1.382       .  A
C287        H290   1.083       .  S
C288       C1033   1.490       .  S
O291       Mg293   2.158       .  S
O291       Mg299   2.172       .  S
O291        C326   1.234       .  S
C292        H331   1.081       .  S
C292        O305   1.234       .  S
C292        O329   1.270       .  A
Mg293       O322   2.166       .  S
Mg293       O337   2.301       .  S
Mg293       O333   2.285       .  S
Mg293       O304   2.306       .  S
O294       Mg336   2.166       .  S
O294       Mg319   2.166       .  S
O294        C315   1.234       .  S
O295        C326   1.269       .  A
O295       Mg319   2.303       .  S
C296       C1336   1.497       .  S
C296        O298   1.274       .  A
C296        O310   1.276       .  A
O297        C325   1.268       .  A
O297       Mg299   2.299       .  S
O298       Mg330   2.288       .  S
Mg299       O305   2.154       .  S
Mg299       O313   2.278       .  S
Mg299       O301   2.287       .  S
C300       C1036   1.495       .  S
C300        O338   1.275       .  A
C300        O306   1.275       .  A
O301        C308   1.274       .  A
H302        C315   1.081       .  S
C303        H328   1.081       .  S
C303        O317   1.234       .  S
C303        O318   1.268       .  A
O304        C327   1.270       .  A
O305       Mg319   2.164       .  S
O306       Mg336   2.298       .  S
C307       C1384   1.491       .  S
C307        O320   1.272       .  A
C307        O312   1.273       .  A
C308       C1012   1.490       .  S
C308        O335   1.273       .  A
Mg309       O316   2.162       .  S
Mg309       O317   2.166       .  S
Mg309       O310   2.305       .  S
Mg309       O311   2.305       .  S
Mg309       O338   2.300       .  S
O311        C315   1.270       .  A
O312       Mg319   2.285       .  S
O313        C332   1.272       .  A
O314        C334   1.274       .  A
O314       Mg330   2.283       .  S
O316       Mg330   2.167       .  S
O316        C327   1.234       .  S
O317       Mg336   2.152       .  S
O318       Mg330   2.297       .  S
Mg319       O335   2.289       .  S
O320       Mg336   2.275       .  S
H321        C326   1.081       .  S
O322       Mg330   2.165       .  S
O322        C325   1.234       .  S
H323        C325   1.081       .  S
H324        C327   1.081       .  S
O329       Mg336   2.303       .  S
C332        C985   1.489       .  S
C332        O337   1.276       .  A
O333        C334   1.273       .  A
C334        C997   1.489       .  S
N339        C343   1.362       .  A
N339        C340   1.365   1_565  A
N339        C961   1.461       .  S
C340        C341   1.385   1_545  A
C340       C1009   1.483       .  S
C341        C342   1.359       .  A
C341        H344   1.082   1_565  S
C342        C343   1.377       .  A
C342        H345   1.083       .  S
C343        C973   1.478       .  S
O346       Mg348   2.171       .  S
O346       Mg354   2.150       .  S
O346        C381   1.235       .  S
C347        H386   1.081       .  S
C347        O360   1.234       .  S
C347        O384   1.270       .  A
Mg348       O377   2.151       .  S
Mg348       O392   2.322       .  S
Mg348       O388   2.249       .  S
Mg348       O359   2.300       .  S
O349       Mg391   2.151       .  S
O349       Mg374   2.145       .  S
O349        C370   1.233       .  S
O350        C381   1.271       .  A
O350       Mg374   2.311       .  S
C351       C1300   1.485       .  S
C351        O353   1.275       .  A
C351        O365   1.269       .  A
O352        C380   1.271       .  A
O352       Mg354   2.314       .  S
O353       Mg385   2.313       .  S
Mg354       O360   2.174       .  S
Mg354       O368   2.283       .  S
Mg354       O356   2.316       .  S
C355        C937   1.479       .  S
C355        O393   1.269       .  A
C355        O361   1.275       .  A
O356        C363   1.275       .  A
H357        C370   1.081       .  S
C358        H383   1.081       .  S
C358        O372   1.234       .  S
C358        O373   1.268       .  A
O359        C382   1.269       .  A
O360       Mg374   2.159       .  S
O361       Mg391   2.323       .  S
C362       C1345   1.487       .  S
C362        O375   1.273       .  A
C362        O367   1.276       .  A
C363        C949   1.482       .  S
C363        O390   1.270       .  A
Mg364       O371   2.143       .  S
Mg364       O372   2.166       .  S
Mg364       O365   2.250       .  S
Mg364       O366   2.293       .  S
Mg364       O393   2.239       .  S
O366        C370   1.267       .  A
O367       Mg374   2.324       .  S
O368        C387   1.273       .  A
O369        C389   1.274       .  A
O369       Mg385   2.309       .  S
O371       Mg385   2.179       .  S
O371        C382   1.234       .  S
O372       Mg391   2.155       .  S
O373       Mg385   2.295       .  S
Mg374       O390   2.240       .  S
O375       Mg391   2.261       .  S
H376        C381   1.081       .  S
O377       Mg385   2.178       .  S
O377        C380   1.235       .  S
H378        C380   1.081       .  S
H379        C382   1.081       .  S
O384       Mg391   2.310       .  S
C387       C1588   1.485       .  S
C387        O392   1.274       .  A
O388        C389   1.271       .  A
C389        C976   1.479       .  S
N394        C398   1.367   1_455  A
N394        C395   1.367       .  A
N394        C913   1.465       .  S
C395        C396   1.380       .  A
C395        C952   1.474       .  S
C396        C397   1.357   1_455  A
C396        H399   1.083       .  S
C397        C398   1.380       .  A
C397        H400   1.083       .  S
C398        C925   1.476       .  S
N401        C405   1.363   1_455  A
N401        C402   1.362       .  A
N401        C889   1.461       .  S
C402        C403   1.380       .  A
C402       C1000   1.481       .  S
C403        C404   1.362   1_455  A
C403        H406   1.082       .  S
C404        C405   1.383       .  A
C404        H407   1.083       .  S
C405        C901   1.478       .  S
O408       Mg410   2.160       .  S
O408       Mg416   2.162       .  S
O408        C443   1.232       .  S
C409        H448   1.081       .  S
C409        O422   1.235       .  S
C409        O446   1.270       .  A
Mg410       O439   2.146       .  S
Mg410       O454   2.273       .  S
Mg410       O450   2.248       .  S
Mg410       O421   2.299       .  S
O411       Mg453   2.144       .  S
O411       Mg436   2.177       .  S
O411        C432   1.238       .  S
O412        C443   1.268       .  A
O412       Mg436   2.305       .  S
C413       C1552   1.492       .  S
C413        O415   1.274       .  A
C413        O427   1.275       .  A
O414        C442   1.271       .  A
O414       Mg416   2.306       .  S
O415       Mg447   2.291       .  S
Mg416       O422   2.150       .  S
Mg416       O430   2.285       .  S
Mg416       O418   2.279       .  S
C417        C877   1.490       .  S
C417        O455   1.270       .  A
C417        O423   1.269       .  A
O418        C425   1.274       .  A
H419        C432   1.081       .  S
C420        H445   1.081       .  S
C420        O434   1.232       .  S
C420        O435   1.267       .  A
O421        C444   1.269       .  A
O422       Mg436   2.173       .  S
O423       Mg453   2.277       .  S
C424       C1372   1.478       .  S
C424        O437   1.268       .  A
C424        O429   1.276       .  A
C425        C865   1.494       .  S
C425        O452   1.276       .  A
Mg426       O433   2.149       .  S
Mg426       O434   2.144       .  S
Mg426       O427   2.286       .  S
Mg426       O428   2.332       .  S
Mg426       O455   2.300       .  S
O428        C432   1.276       .  A
O429       Mg436   2.339       .  S
O430        C449   1.271       .  A
O431        C451   1.275       .  A
O431       Mg447   2.324       .  S
O433       Mg447   2.181       .  S
O433        C444   1.235       .  S
O434       Mg453   2.157       .  S
O435       Mg447   2.301       .  S
Mg436       O452   2.305       .  S
O437       Mg453   2.235       .  S
H438        C443   1.081       .  S
O439       Mg447   2.165       .  S
O439        C442   1.235       .  S
H440        C442   1.081       .  S
H441        C444   1.081       .  S
O446       Mg453   2.300       .  S
C449       C1417   1.485       .  S
C449        O454   1.270       .  A
O450        C451   1.269       .  A
C451        C904   1.474       .  S
N456        C460   1.368   1_565  A
N456        C457   1.369       .  A
N456        C841   1.470       .  S
C457        C458   1.381       .  A
C457        C853   1.484       .  S
C458        C459   1.358   1_565  A
C458        H461   1.083       .  S
C459        C460   1.381       .  A
C459        H462   1.083       .  S
C460        C880   1.487       .  S
O463       Mg465   2.143       .  S
O463       Mg471   2.169       .  S
O463        C498   1.234       .  S
C464        H503   1.081       .  S
C464        O477   1.236       .  S
C464        O501   1.270       .  A
Mg465       O494   2.150       .  S
Mg465       O509   2.285       .  S
Mg465       O505   2.288       .  S
Mg465       O476   2.320       .  S
O466       Mg508   2.158       .  S
O466       Mg491   2.154       .  S
O466        C487   1.233       .  S
O467        C498   1.268       .  A
O467       Mg491   2.294       .  S
C468        C928   1.484       .  S
C468        O470   1.268       .  A
C468        O482   1.278       .  A
O469        C497   1.269       .  A
O469       Mg471   2.303       .  S
O470       Mg502   2.227       .  S
Mg471       O477   2.162       .  S
Mg471       O485   2.312       .  S
Mg471       O473   2.277       .  S
C472       C1528   1.491       .  S
C472        O510   1.276       .  A
C472        O478   1.276       .  A
O473        C480   1.274       .  A
H474        C487   1.081       .  S
C475        H500   1.081       .  S
C475        O489   1.234       .  S
C475        O490   1.269       .  A
O476        C499   1.273       .  A
O477       Mg491   2.175       .  S
O478       Mg508   2.284       .  S
C479        C856   1.494       .  S
C479        O492   1.274       .  A
C479        O484   1.274       .  A
C480       C1312   1.488       .  S
C480        O507   1.273       .  A
Mg481       O488   2.182       .  S
Mg481       O489   2.172       .  S
Mg481       O482   2.354       .  S
Mg481       O483   2.304       .  S
Mg481       O510   2.299       .  S
O483        C487   1.269       .  A
O484       Mg491   2.288       .  S
O485        C504   1.275       .  A
O486        C506   1.273       .  A
O486       Mg502   2.289       .  S
O488       Mg502   2.157       .  S
O488        C499   1.236       .  S
O489       Mg508   2.166       .  S
O490       Mg502   2.300       .  S
Mg491       O507   2.280       .  S
O492       Mg508   2.304       .  S
H493        C498   1.081       .  S
O494       Mg502   2.150       .  S
O494        C497   1.234       .  S
H495        C497   1.081       .  S
H496        C499   1.081       .  S
O501       Mg508   2.299       .  S
C504        C829   1.498       .  S
C504        O509   1.274       .  A
O505        C506   1.270       .  A
C506       C1408   1.493       .  S
N511        C515   1.370       .  A
N511        C512   1.368   1_556  A
N511        C817   1.474       .  S
C512        C513   1.379       .  A
C512       C1156   1.487       .  S
C513        C514   1.357   1_554  A
C513        H516   1.083       .  S
C514        C515   1.385       .  A
C514        H517   1.083       .  S
C515        C940   1.491       .  S
N518        C522   1.364   1_554  A
N518        C519   1.363       .  A
N518        C805   1.456   1_554  S
C519        C520   1.381       .  A
C519       C1117   1.476       .  S
C520        C521   1.360   1_554  A
C520        H523   1.083       .  S
C521        C522   1.380       .  A
C521        H524   1.082       .  S
C522        C868   1.480       .  S
N525        C529   1.369   1_554  A
N525        C526   1.370       .  A
N525        C793   1.468   1_554  S
C526        C527   1.383       .  A
C526       C1057   1.489       .  S
C527        C528   1.358   1_554  A
C527        H530   1.083       .  S
C528        C529   1.378       .  A
C528        H531   1.082       .  S
C529        C832   1.488       .  S
N532        C536   1.364       .  A
N532        C533   1.365       .  A
N532        C781   1.464       .  S
C533        C534   1.380       .  A
C533       C1216   1.483       .  S
C534        C535   1.361       .  A
C534        H537   1.082       .  S
C535        C536   1.382       .  A
C535        H538   1.083       .  S
C536       C1108   1.479       .  S
N539        C543   1.363       .  A
N539        C540   1.364       .  A
N539        C769   1.462       .  S
C540        C541   1.383       .  A
C540       C1144   1.476       .  S
C541        C542   1.361       .  A
C541        H544   1.083       .  S
C542        C543   1.379       .  A
C542        H545   1.083       .  S
C543       C1228   1.477       .  S
N546        C550   1.368       .  A
N546        C547   1.367       .  A
N546        C760   1.468       .  S
C547        C548   1.381       .  A
C547        C988   1.478       .  S
C548        C549   1.359       .  A
C548        H551   1.083       .  S
C549        C550   1.380       .  A
C549        H552   1.083       .  S
C550       C1201   1.483       .  S
N553        C558   1.357       .  A
N553        C557   1.360   1_455  A
N553        H585   1.039       .  S
N554        C561   1.354       .  A
N554        C562   1.355   1_565  A
N555        C560   1.355       .  A
N555        C559   1.360   1_455  A
N555        H586   1.039       .  S
N556        C563   1.360       .  A
N556        C564   1.360   1_565  A
C557        C565   1.385   1_655  A
C557        C573   1.422       .  A
C558        C574   1.427       .  A
C558        C566   1.389       .  A
C559        C567   1.385   1_655  A
C559        C576   1.421       .  A
C560        C575   1.425       .  A
C560        C568   1.389       .  A
C561        C573   1.420       .  A
C561        C569   1.387       .  A
C562        C576   1.420       .  A
C562        C570   1.386   1_545  A
C563        C571   1.386       .  A
C563        C574   1.429       .  A
C564        C572   1.386   1_545  A
C564        C575   1.428       .  A
C565        C566   1.378       .  A
C565        H577   1.082   1_455  S
C566        H578   1.082       .  S
C567        C568   1.378       .  A
C567        H579   1.082   1_455  S
C568        H580   1.082       .  S
C569        C570   1.372       .  A
C569        H581   1.082       .  S
C570        H582   1.082   1_565  S
C571        C572   1.381       .  A
C571        H583   1.082       .  S
C572        H584   1.082   1_565  S
C573       C1540   1.504       .  S
C574       C1612   1.514       .  S
C575        C757   1.509       .  S
C576       C1576   1.506       .  S
N587        C592   1.357   1_565  A
N587        C591   1.361       .  A
N587        H619   1.039       .  S
N588        C595   1.357   1_556  A
N588        C596   1.356       .  A
N589        C594   1.356   1_565  A
N589        C593   1.357       .  A
N589        H620   1.039       .  S
N590        C597   1.356       .  A
N590        C598   1.358   1_554  A
C591        C599   1.386       .  A
C591        C607   1.427       .  A
C592        C608   1.427       .  A
C592        C600   1.388   1_545  A
C593        C601   1.385       .  A
C593        C610   1.419       .  A
C594        C609   1.423       .  A
C594        C602   1.389   1_545  A
C595        C607   1.423       .  A
C595        C603   1.387       .  A
C596        C610   1.421       .  A
C596        C604   1.386       .  A
C597        C605   1.387       .  A
C597        C608   1.423       .  A
C598        C606   1.385       .  A
C598        C609   1.422       .  A
C599        C600   1.380       .  A
C599        H611   1.082       .  S
C600        H612   1.082   1_565  S
C601        C602   1.377       .  A
C601        H613   1.082       .  S
C602        H614   1.082   1_565  S
C603        C604   1.374   1_554  A
C603        H615   1.082       .  S
C604        H616   1.082       .  S
C605        C606   1.378   1_554  A
C605        H617   1.082       .  S
C606        H618   1.082       .  S
C607       C1504   1.516       .  S
C608        C784   1.507       .  S
C609       C1393   1.507       .  S
C610       C1324   1.504       .  S
N621        C626   1.356   1_455  A
N621        C625   1.360       .  A
N621        H653   1.039       .  S
N622        C629   1.353   1_556  A
N622        C630   1.354       .  A
N623        C628   1.355   1_455  A
N623        C627   1.361       .  A
N623        H654   1.041       .  S
N624        C631   1.360       .  A
N624        C632   1.360   1_554  A
C625        C633   1.385       .  A
C625        C641   1.423       .  A
C626        C642   1.428       .  A
C626        C634   1.389   1_655  A
C627        C635   1.385       .  A
C627        C644   1.423       .  A
C628        C643   1.425       .  A
C628        C636   1.389   1_655  A
C629        C641   1.417       .  A
C629        C637   1.387       .  A
C630        C644   1.418       .  A
C630        C638   1.386       .  A
C631        C639   1.386       .  A
C631        C642   1.428       .  A
C632        C640   1.386       .  A
C632        C643   1.428       .  A
C633        C634   1.381       .  A
C633        H645   1.082       .  S
C634        H646   1.082   1_455  S
C635        C636   1.380       .  A
C635        H647   1.082       .  S
C636        H648   1.082   1_455  S
C637        C638   1.372   1_554  A
C637        H649   1.082       .  S
C638        H650   1.082       .  S
C639        C640   1.380   1_554  A
C639        H651   1.082       .  S
C640        H652   1.082       .  S
C641        C772   1.505       .  S
C642       C1465   1.514       .  S
C643       C1432   1.512       .  S
C644       C1360   1.512       .  S
N655        C660   1.356       .  A
N655        C659   1.357       .  A
N655        H687   1.040   1_554  S
N656        C663   1.359   1_554  A
N656        C664   1.355   1_554  A
N657        C662   1.361   1_556  A
N657        C661   1.360   1_556  A
N657        H688   1.037       .  S
N658        C665   1.358   1_554  A
N658        C666   1.355   1_554  A
C659        C667   1.386       .  A
C659        C675   1.420       .  A
C660        C676   1.422       .  A
C660        C668   1.387       .  A
C661        C669   1.388       .  A
C661        C678   1.431   1_554  A
C662        C677   1.430       .  A
C662        C670   1.387       .  A
C663        C675   1.420   1_556  A
C663        C671   1.383       .  A
C664        C678   1.426       .  A
C664        C672   1.389       .  A
C665        C673   1.385       .  A
C665        C676   1.421   1_556  A
C666        C674   1.388       .  A
C666        C677   1.424   1_556  A
C667        C668   1.375       .  A
C667        H679   1.082       .  S
C668        H680   1.082       .  S
C669        C670   1.384       .  A
C669        H681   1.082       .  S
C670        H682   1.082       .  S
C671        C672   1.377       .  A
C671        H683   1.082       .  S
C672        H684   1.082       .  S
C673        C674   1.375       .  A
C673        H685   1.082       .  S
C674        H686   1.082       .  S
C675        C796   1.509   1_554  S
C676        C808   1.509       .  S
C677       C1024   1.508       .  S
C678        C820   1.507       .  S
N689        C694   1.359       .  A
N689        C693   1.356       .  A
N689        H721   1.040   1_455  S
N690        C697   1.359       .  A
N690        C698   1.358       .  A
N691        C696   1.358       .  A
N691        C695   1.357       .  A
N691        H722   1.039       .  S
N692        C699   1.356       .  A
N692        C700   1.355       .  A
C693        C701   1.388       .  A
C693        C709   1.423       .  A
C694        C710   1.422       .  A
C694        C702   1.386       .  A
C695        C703   1.388       .  A
C695        C712   1.424       .  A
C696        C711   1.423       .  A
C696        C704   1.387       .  A
C697        C709   1.422       .  A
C697        C705   1.385       .  A
C698        C712   1.426       .  A
C698        C706   1.388       .  A
C699        C707   1.386   1_455  A
C699        C710   1.421       .  A
C700        C708   1.387   1_455  A
C700        C711   1.421       .  A
C701        C702   1.379       .  A
C701        H713   1.082       .  S
C702        H714   1.082       .  S
C703        C704   1.382       .  A
C703        H715   1.082       .  S
C704        H716   1.082       .  S
C705        C706   1.375       .  A
C705        H717   1.082   1_455  S
C706        H718   1.082   1_455  S
C707        C708   1.373       .  A
C707        H719   1.082       .  S
C708        H720   1.083       .  S
C709       C1048   1.508       .  S
C710        C916   1.510       .  S
C711        C892   1.505       .  S
C712       C1264   1.508       .  S
N723        C728   1.357       .  A
N723        C727   1.360       .  A
N723        H755   1.045       .  S
N724        C731   1.354       .  A
N724        C732   1.355       .  A
N725        C730   1.356       .  A
N725        C729   1.354       .  A
N725        H756   1.045       .  S
N726        C733   1.354       .  A
N726        C734   1.359       .  A
C727        C735   1.386       .  A
C727        C743   1.426       .  A
C728        C744   1.426       .  A
C728        C736   1.388       .  A
C729        C737   1.388   1_565  A
C729        C746   1.419       .  A
C730        C745   1.419       .  A
C730        C738   1.386   1_565  A
C731        C743   1.421       .  A
C731        C739   1.388       .  A
C732        C746   1.417       .  A
C732        C740   1.385       .  A
C733        C741   1.389       .  A
C733        C744   1.424       .  A
C734        C742   1.384       .  A
C734        C745   1.419       .  A
C735        C736   1.382       .  A
C735        H747   1.082   1_565  S
C736        H748   1.082   1_565  S
C737        C738   1.375       .  A
C737        H749   1.083       .  S
C738        H750   1.082       .  S
C739        C740   1.376       .  A
C739        H751   1.082       .  S
C740        H752   1.082       .  S
C741        C742   1.376       .  A
C741        H753   1.082       .  S
C742        H754   1.082       .  S
C743        C844   1.505       .  S
C744       C1084   1.501       .  S
C745       C1180   1.509       .  S
C746        C964   1.498       .  S
C757        C758   1.402       .  A
C757        C762   1.409       .  A
C758        C759   1.405       .  A
C758        H763   1.084       .  S
C759        C760   1.422       .  A
C759        O764   1.369       .  S
C760        C761   1.415       .  A
C761        C762   1.414       .  A
C761        H765   1.080       .  S
C762        O766   1.371       .  S
O764        H768   0.992       .  S
O766        H767   0.992       .  S
C769        C770   1.412       .  A
C769        C774   1.419       .  A
C770        C771   1.410       .  A
C770        H775   1.078       .  S
C771        C772   1.409       .  A
C771        O776   1.371       .  S
C772        C773   1.403       .  A
C773        C774   1.404       .  A
C773        H777   1.084       .  S
C774        O778   1.371       .  S
O776        H780   0.991       .  S
O778        H779   0.991       .  S
C781        C782   1.415       .  A
C781        C786   1.418       .  A
C782        C783   1.403       .  A
C782        H787   1.082       .  S
C783        C784   1.407       .  A
C783        O788   1.371       .  S
C784        C785   1.406       .  A
C785        C786   1.410       .  A
C785        H789   1.083       .  S
C786        O790   1.369       .  S
O788        H792   0.990       .  S
O790        H791   0.992       .  S
C793        C794   1.414   1_556  A
C793        C798   1.424       .  A
C794        C795   1.416       .  A
C794        H799   1.081       .  S
C795        C796   1.410   1_554  A
C795        O800   1.371       .  S
C796        C797   1.400       .  A
C797        C798   1.404       .  A
C797        H801   1.084       .  S
C798        O802   1.369       .  S
O800        H804   0.992       .  S
O802        H803   0.993       .  S
C805        C806   1.409   1_556  A
C805        C810   1.417       .  A
C806        C807   1.412       .  A
C806        H811   1.081       .  S
C807        C808   1.413       .  A
C807        O812   1.371       .  S
C808        C809   1.404   1_554  A
C809        C810   1.401       .  A
C809        H813   1.084       .  S
C810        O814   1.371       .  S
O812        H816   0.990       .  S
O814        H815   0.993       .  S
C817        C818   1.418   1_556  A
C817        C822   1.423       .  A
C818        C819   1.405       .  A
C818        H823   1.080       .  S
C819        C820   1.405   1_554  A
C819        O824   1.372       .  S
C820        C821   1.404       .  A
C821        C822   1.414       .  A
C821        H825   1.083       .  S
C822        O826   1.368       .  S
O824        H828   0.990       .  S
O826        H827   0.990       .  S
C829        C830   1.408       .  A
C829        C834   1.415       .  A
C830        C831   1.397       .  A
C830        H835   1.083       .  S
C831        C832   1.407       .  A
C831        O836   1.374       .  S
C832        C833   1.407       .  A
C833        C834   1.412       .  A
C833        H837   1.083       .  S
C834        O838   1.371       .  S
O836        H840   0.992       .  S
O838        H839   0.992       .  S
C841        C842   1.415       .  A
C841        C846   1.426   1_565  A
C842        C843   1.411       .  A
C842        H847   1.079       .  S
C843        C844   1.407       .  A
C843        O848   1.371       .  S
C844        C845   1.400   1_565  A
C845        C846   1.406       .  A
C845        H849   1.084       .  S
C846        O850   1.370       .  S
O848        H852   0.993       .  S
O850        H851   0.991       .  S
C853        C854   1.406       .  A
C853        C858   1.406       .  A
C854        C855   1.408       .  A
C854        H859   1.083       .  S
C855        C856   1.413       .  A
C855        O860   1.371       .  S
C856        C857   1.409       .  A
C857        C858   1.398       .  A
C857        H861   1.083       .  S
C858        O862   1.372       .  S
O860        H864   0.991       .  S
O862        H863   0.992       .  S
C865        C866   1.409       .  A
C865        C870   1.414       .  A
C866        C867   1.396       .  A
C866        H871   1.083       .  S
C867        C868   1.405       .  A
C867        O872   1.374       .  S
C868        C869   1.405       .  A
C869        C870   1.408       .  A
C869        H873   1.084       .  S
C870        O874   1.370       .  S
O872        H876   0.994       .  S
O874        H875   0.993       .  S
C877        C878   1.408       .  A
C877        C882   1.413       .  A
C878        C879   1.410       .  A
C878        H883   1.083       .  S
C879        C880   1.410       .  A
C879        O884   1.371       .  S
C880        C881   1.403       .  A
C881        C882   1.395       .  A
C881        H885   1.084       .  S
C882        O886   1.372       .  S
O884        H888   0.991       .  S
O886        H887   0.991       .  S
C889        C890   1.413       .  A
C889        C894   1.416       .  A
C890        C891   1.401       .  A
C890        H895   1.082       .  S
C891        C892   1.408       .  A
C891        O896   1.372       .  S
C892        C893   1.407       .  A
C893        C894   1.412       .  A
C893        H897   1.083   1_455  S
C894        O898   1.370   1_455  S
O896        H900   0.989       .  S
O898        H899   0.992       .  S
C901        C902   1.409       .  A
C901        C906   1.404       .  A
C902        C903   1.406       .  A
C902        H907   1.084       .  S
C903        C904   1.404       .  A
C903        O908   1.371       .  S
C904        C905   1.405       .  A
C905        C906   1.397       .  A
C905        H909   1.084       .  S
C906        O910   1.372       .  S
O908        H912   0.990       .  S
O910        H911   0.993       .  S
C913        C914   1.411   1_455  A
C913        C918   1.422       .  A
C914        C915   1.413       .  A
C914        H919   1.080       .  S
C915        C916   1.411   1_655  A
C915        O920   1.371       .  S
C916        C917   1.402       .  A
C917        C918   1.403       .  A
C917        H921   1.084       .  S
C918        O922   1.369       .  S
O920        H924   0.991       .  S
O922        H923   0.993       .  S
C925        C926   1.410       .  A
C925        C930   1.404       .  A
C926        C927   1.410       .  A
C926        H931   1.084       .  S
C927        C928   1.407       .  A
C927        O932   1.371       .  S
C928        C929   1.407       .  A
C929        C930   1.396       .  A
C929        H933   1.084       .  S
C930        O934   1.372       .  S
O932        H936   0.991       .  S
O934        H935   0.990       .  S
C937        C938   1.402       .  A
C937        C942   1.411       .  A
C938        C939   1.407       .  A
C938        H943   1.083       .  S
C939        C940   1.415       .  A
C939        O944   1.370       .  S
C940        C941   1.404       .  A
C941        C942   1.397       .  A
C941        H945   1.084       .  S
C942        O946   1.373       .  S
O944        H948   0.989       .  S
O946        H947   0.992       .  S
C949        C950   1.406       .  A
C949        C954   1.410       .  A
C950        C951   1.395       .  A
C950        H955   1.084       .  S
C951        C952   1.407       .  A
C951        O956   1.373       .  S
C952        C953   1.404       .  A
C953        C954   1.404       .  A
C953        H957   1.084       .  S
C954        O958   1.371       .  S
O956        H960   0.992       .  S
O958        H959   0.993       .  S
C961        C962   1.412       .  A
C961        C966   1.423       .  A
C962        C963   1.410       .  A
C962        H967   1.080   1_565  S
C963        C964   1.408       .  A
C963        O968   1.371   1_565  S
C964        C965   1.399       .  A
C965        C966   1.399       .  A
C965        H969   1.084       .  S
C966        O970   1.370       .  S
O968        H972   0.992       .  S
O970        H971   0.992       .  S
C973        C974   1.400       .  A
C973        C978   1.410       .  A
C974        C975   1.394       .  A
C974        H979   1.084       .  S
C975        C976   1.410       .  A
C975        O980   1.373       .  S
C976        C977   1.406       .  A
C977        C978   1.406       .  A
C977        H981   1.083       .  S
C978        O982   1.371       .  S
O980        H984   0.991       .  S
O982        H983   0.992       .  S
C985        C986   1.408       .  A
C985        C990   1.412       .  A
C986        C987   1.398       .  A
C986        H991   1.084       .  S
C987        C988   1.405       .  A
C987        O992   1.372       .  S
C988        C989   1.405       .  A
C989        C990   1.405       .  A
C989        H993   1.084       .  S
C990        O994   1.371       .  S
O992        H996   0.992       .  S
O994        H995   0.992       .  S
C997        C998   1.408       .  A
C997       C1002   1.413       .  A
C998        C999   1.395       .  A
C998       H1003   1.083       .  S
C999       C1000   1.406       .  A
C999       O1004   1.372       .  S
C1000      C1001   1.405       .  A
C1001      C1002   1.406       .  A
C1001      H1005   1.084       .  S
C1002      O1006   1.371       .  S
O1004      H1008   0.992       .  S
O1006      H1007   0.991       .  S
C1009      C1010   1.406       .  A
C1009      C1014   1.406       .  A
C1010      C1011   1.406       .  A
C1010      H1015   1.083       .  S
C1011      C1012   1.412       .  A
C1011      O1016   1.371       .  S
C1012      C1013   1.408       .  A
C1013      C1014   1.399       .  A
C1013      H1017   1.084       .  S
C1014      O1018   1.374       .  S
O1016      H1020   0.994       .  S
O1018      H1019   0.992       .  S
C1021      C1022   1.420   1_556  A
C1021      C1026   1.425       .  A
C1022      C1023   1.408       .  A
C1022      H1027   1.078       .  S
C1023      C1024   1.405       .  A
C1023      O1028   1.372       .  S
C1024      C1025   1.402   1_554  A
C1025      C1026   1.412       .  A
C1025      H1029   1.083       .  S
C1026      O1030   1.366       .  S
O1028      H1032   0.990       .  S
O1030      H1031   0.989       .  S
C1033      C1034   1.402       .  A
C1033      C1038   1.412       .  A
C1034      C1035   1.399       .  A
C1034      H1039   1.084       .  S
C1035      C1036   1.416       .  A
C1035      O1040   1.372       .  S
C1036      C1037   1.408       .  A
C1037      C1038   1.409       .  A
C1037      H1041   1.083       .  S
C1038      O1042   1.371       .  S
O1040      H1044   0.994       .  S
O1042      H1043   0.991       .  S
C1045      C1046   1.413       .  A
C1045      C1050   1.425   1_455  A
C1046      C1047   1.410       .  A
C1046      H1051   1.081       .  S
C1047      C1048   1.409       .  A
C1047      O1052   1.371       .  S
C1048      C1049   1.402   1_455  A
C1049      C1050   1.407       .  A
C1049      H1053   1.084       .  S
C1050      O1054   1.370       .  S
O1052      H1056   0.990       .  S
O1054      H1055   0.990       .  S
C1057      C1058   1.403       .  A
C1057      C1062   1.412       .  A
C1058      C1059   1.401       .  A
C1058      H1063   1.084       .  S
C1059      C1060   1.415       .  A
C1059      O1064   1.372       .  S
C1060      C1061   1.409       .  A
C1061      C1062   1.410       .  A
C1061      H1065   1.083       .  S
C1062      O1066   1.371       .  S
O1064      H1068   0.991       .  S
O1066      H1067   0.993       .  S
C1069      C1070   1.410       .  A
C1069      C1074   1.415       .  A
C1070      C1071   1.397       .  A
C1070      H1075   1.083       .  S
C1071      C1072   1.408       .  A
C1071      O1076   1.372       .  S
C1072      C1073   1.407       .  A
C1073      C1074   1.409       .  A
C1073      H1077   1.083       .  S
C1074      O1078   1.371       .  S
O1076      H1080   0.992       .  S
O1078      H1079   0.992       .  S
C1081      C1082   1.416   1_565  A
C1081      C1086   1.419       .  A
C1082      C1083   1.403       .  A
C1082      H1087   1.081       .  S
C1083      C1084   1.405   1_545  A
C1083      O1088   1.372       .  S
C1084      C1085   1.403       .  A
C1085      C1086   1.409       .  A
C1085      H1089   1.083       .  S
C1086      O1090   1.367       .  S
O1088      H1092   0.992       .  S
O1090      H1091   0.992       .  S
C1093      C1094   1.401       .  A
C1093      C1098   1.412       .  A
C1094      C1095   1.397       .  A
C1094      H1099   1.084       .  S
C1095      C1096   1.414       .  A
C1095      O1100   1.372       .  S
C1096      C1097   1.405       .  A
C1097      C1098   1.405       .  A
C1097      H1101   1.083       .  S
C1098      O1102   1.371       .  S
O1100      H1104   0.991       .  S
O1102      H1103   0.991       .  S
C1105      C1106   1.402       .  A
C1105      C1110   1.413       .  A
C1106      C1107   1.406       .  A
C1106      H1111   1.083       .  S
C1107      C1108   1.415       .  A
C1107      O1112   1.371       .  S
C1108      C1109   1.398       .  A
C1109      C1110   1.396       .  A
C1109      H1113   1.084       .  S
C1110      O1114   1.372       .  S
O1112      H1116   0.991       .  S
O1114      H1115   0.991       .  S
C1117      C1118   1.400       .  A
C1117      C1122   1.413       .  A
C1118      C1119   1.397       .  A
C1118      H1123   1.084       .  S
C1119      C1120   1.411       .  A
C1119      O1124   1.372       .  S
C1120      C1121   1.404       .  A
C1121      C1122   1.407       .  A
C1121      H1125   1.083       .  S
C1122      O1126   1.372       .  S
O1124      H1128   0.991       .  S
O1126      H1127   0.992       .  S
C1129      C1130   1.406       .  A
C1129      C1134   1.413       .  A
C1130      C1131   1.408       .  A
C1130      H1135   1.083       .  S
C1131      C1132   1.411       .  A
C1131      O1136   1.370       .  S
C1132      C1133   1.401       .  A
C1133      C1134   1.393       .  A
C1133      H1137   1.084       .  S
C1134      O1138   1.374       .  S
O1136      H1140   0.990       .  S
O1138      H1139   0.991       .  S
C1141      C1142   1.409       .  A
C1141      C1146   1.411       .  A
C1142      C1143   1.397       .  A
C1142      H1147   1.083       .  S
C1143      C1144   1.405       .  A
C1143      O1148   1.373       .  S
C1144      C1145   1.405       .  A
C1145      C1146   1.402       .  A
C1145      H1149   1.084       .  S
C1146      O1150   1.371       .  S
O1148      H1152   0.993       .  S
O1150      H1151   0.991       .  S
C1153      C1154   1.406       .  A
C1153      C1158   1.412       .  A
C1154      C1155   1.396       .  A
C1154      H1159   1.084       .  S
C1155      C1156   1.407       .  A
C1155      O1160   1.372       .  S
C1156      C1157   1.407       .  A
C1157      C1158   1.410       .  A
C1157      H1161   1.081       .  S
C1158      O1162   1.371       .  S
O1160      H1164   0.991       .  S
O1162      H1163   0.991       .  S
C1165      C1166   1.406       .  A
C1165      C1170   1.404       .  A
C1166      C1167   1.399       .  A
C1166      H1171   1.084       .  S
C1167      C1168   1.404       .  A
C1167      O1172   1.371       .  S
C1168      C1169   1.410       .  A
C1169      C1170   1.406       .  A
C1169      H1173   1.083       .  S
C1170      O1174   1.371       .  S
O1172      H1176   0.992       .  S
O1174      H1175   0.990       .  S
C1177      C1178   1.412       .  A
C1177      C1182   1.417   1_565  A
C1178      C1179   1.403       .  A
C1178      H1183   1.082       .  S
C1179      C1180   1.409       .  A
C1179      O1184   1.372       .  S
C1180      C1181   1.406   1_565  A
C1181      C1182   1.415       .  A
C1181      H1185   1.083       .  S
C1182      O1186   1.371       .  S
O1184      H1188   0.990       .  S
O1186      H1187   0.992       .  S
C1189      C1190   1.400       .  A
C1189      C1194   1.411       .  A
C1190      C1191   1.394       .  A
C1190      H1195   1.084       .  S
C1191      C1192   1.419       .  A
C1191      O1196   1.373       .  S
C1192      C1193   1.410       .  A
C1193      C1194   1.411       .  A
C1193      H1197   1.083       .  S
C1194      O1198   1.370       .  S
O1196      H1200   0.992       .  S
O1198      H1199   0.993       .  S
C1201      C1202   1.404       .  A
C1201      C1206   1.407       .  A
C1202      C1203   1.409       .  A
C1202      H1207   1.084       .  S
C1203      C1204   1.416       .  A
C1203      O1208   1.371       .  S
C1204      C1205   1.408       .  A
C1205      C1206   1.396       .  A
C1205      H1209   1.083       .  S
C1206      O1210   1.372       .  S
O1208      H1212   0.991       .  S
O1210      H1211   0.991       .  S
C1213      C1214   1.408       .  A
C1213      C1218   1.413       .  A
C1214      C1215   1.399       .  A
C1214      H1219   1.083       .  S
C1215      C1216   1.407       .  A
C1215      O1220   1.374       .  S
C1216      C1217   1.404       .  A
C1217      C1218   1.405       .  A
C1217      H1221   1.083       .  S
C1218      O1222   1.371       .  S
O1220      H1224   0.992       .  S
O1222      H1223   0.992       .  S
C1225      C1226   1.409       .  A
C1225      C1230   1.417       .  A
C1226      C1227   1.406       .  A
C1226      H1231   1.083       .  S
C1227      C1228   1.408       .  A
C1227      O1232   1.372       .  S
C1228      C1229   1.399       .  A
C1229      C1230   1.395       .  A
C1229      H1233   1.084       .  S
C1230      O1234   1.372       .  S
O1232      H1236   0.991       .  S
O1234      H1235   0.992       .  S
C1237      C1238   1.407       .  A
C1237      C1242   1.416       .  A
C1238      C1239   1.395       .  A
C1238      H1243   1.083       .  S
C1239      C1240   1.408       .  A
C1239      O1244   1.372       .  S
C1240      C1241   1.405       .  A
C1241      C1242   1.410       .  A
C1241      H1245   1.083       .  S
C1242      O1246   1.371       .  S
O1244      H1248   0.991       .  S
O1246      H1247   0.990       .  S
C1249      C1250   1.402       .  A
C1249      C1254   1.413       .  A
C1250      C1251   1.401       .  A
C1250      H1255   1.084       .  S
C1251      C1252   1.410       .  A
C1251      O1256   1.371       .  S
C1252      C1253   1.400       .  A
C1253      C1254   1.400       .  A
C1253      H1257   1.084       .  S
C1254      O1258   1.372       .  S
O1256      H1260   0.992       .  S
O1258      H1259   0.990       .  S
C1261      C1262   1.412       .  A
C1261      C1266   1.422       .  A
C1262      C1263   1.411       .  A
C1262      H1267   1.080   1_455  S
C1263      C1264   1.409       .  A
C1263      O1268   1.371   1_455  S
C1264      C1265   1.402       .  A
C1265      C1266   1.404       .  A
C1265      H1269   1.084       .  S
C1266      O1270   1.369       .  S
O1268      H1272   0.991       .  S
O1270      H1271   0.990       .  S
C1273      C1274   1.409       .  A
C1273      C1278   1.408       .  A
C1274      C1275   1.395       .  A
C1274      H1279   1.084       .  S
C1275      C1276   1.402       .  A
C1275      O1280   1.372       .  S
C1276      C1277   1.408       .  A
C1277      C1278   1.407       .  A
C1277      H1281   1.084       .  S
C1278      O1282   1.371       .  S
O1280      H1284   0.993       .  S
O1282      H1283   0.993       .  S
C1285      C1286   1.404       .  A
C1285      C1290   1.405       .  A
C1286      C1287   1.406       .  A
C1286      H1291   1.084       .  S
C1287      C1288   1.414       .  A
C1287      O1292   1.372       .  S
C1288      C1289   1.407       .  A
C1289      C1290   1.395       .  A
C1289      H1293   1.083       .  S
C1290      O1294   1.373       .  S
O1292      H1296   0.991       .  S
O1294      H1295   0.991       .  S
C1297      C1298   1.409       .  A
C1297      C1302   1.402       .  A
C1298      C1299   1.406       .  A
C1298      H1303   1.084       .  S
C1299      C1300   1.407       .  A
C1299      O1304   1.371       .  S
C1300      C1301   1.410       .  A
C1301      C1302   1.398       .  A
C1301      H1305   1.084       .  S
C1302      O1306   1.372       .  S
O1304      H1308   0.993       .  S
O1306      H1307   0.991       .  S
C1309      C1310   1.404       .  A
C1309      C1314   1.405       .  A
C1310      C1311   1.406       .  A
C1310      H1315   1.084       .  S
C1311      C1312   1.415       .  A
C1311      O1316   1.372       .  S
C1312      C1313   1.407       .  A
C1313      C1314   1.393       .  A
C1313      H1317   1.083       .  S
C1314      O1318   1.373       .  S
O1316      H1320   0.991       .  S
O1318      H1319   0.992       .  S
C1321      C1322   1.413       .  A
C1321      C1326   1.424       .  A
C1322      C1323   1.412       .  A
C1322      H1327   1.081       .  S
C1323      C1324   1.409       .  A
C1323      O1328   1.371       .  S
C1324      C1325   1.398       .  A
C1325      C1326   1.402       .  A
C1325      H1329   1.084       .  S
C1326      O1330   1.368       .  S
O1328      H1332   0.992       .  S
O1330      H1331   0.994       .  S
C1333      C1334   1.402       .  A
C1333      C1338   1.407       .  A
C1334      C1335   1.399       .  A
C1334      H1339   1.084       .  S
C1335      C1336   1.416       .  A
C1335      O1340   1.372       .  S
C1336      C1337   1.411       .  A
C1337      C1338   1.407       .  A
C1337      H1341   1.083       .  S
C1338      O1342   1.371       .  S
O1340      H1344   0.991       .  S
O1342      H1343   0.991       .  S
C1345      C1346   1.405       .  A
C1345      C1350   1.411       .  A
C1346      C1347   1.397       .  A
C1346      H1351   1.084       .  S
C1347      C1348   1.407       .  A
C1347      O1352   1.372       .  S
C1348      C1349   1.407       .  A
C1349      C1350   1.408       .  A
C1349      H1353   1.084       .  S
C1350      O1354   1.372       .  S
O1352      H1356   0.991       .  S
O1354      H1355   0.991       .  S
C1357      C1358   1.411       .  A
C1357      C1362   1.416       .  A
C1358      C1359   1.416       .  A
C1358      H1363   1.081       .  S
C1359      C1360   1.412       .  A
C1359      O1364   1.371       .  S
C1360      C1361   1.404       .  A
C1361      C1362   1.402       .  A
C1361      H1365   1.084       .  S
C1362      O1366   1.370       .  S
O1364      H1368   0.990       .  S
O1366      H1367   0.992       .  S
C1369      C1370   1.400       .  A
C1369      C1374   1.414       .  A
C1370      C1371   1.399       .  A
C1370      H1375   1.084       .  S
C1371      C1372   1.410       .  A
C1371      O1376   1.373       .  S
C1372      C1373   1.400       .  A
C1373      C1374   1.406       .  A
C1373      H1377   1.083       .  S
C1374      O1378   1.369       .  S
O1376      H1380   0.992       .  S
O1378      H1379   0.991       .  S
C1381      C1382   1.403       .  A
C1381      C1386   1.407       .  A
C1382      C1383   1.396       .  A
C1382      H1387   1.084       .  S
C1383      C1384   1.415       .  A
C1383      O1388   1.372       .  S
C1384      C1385   1.409       .  A
C1385      C1386   1.406       .  A
C1385      H1389   1.083       .  S
C1386      O1390   1.371       .  S
O1388      H1392   0.992       .  S
O1390      H1391   0.992       .  S
C1393      C1394   1.400       .  A
C1393      C1398   1.409       .  A
C1394      C1395   1.403       .  A
C1394      H1399   1.084       .  S
C1395      C1396   1.424       .  A
C1395      O1400   1.370       .  S
C1396      C1397   1.414       .  A
C1397      C1398   1.413       .  A
C1397      H1401   1.081       .  S
C1398      O1402   1.371       .  S
O1400      H1404   0.992       .  S
O1402      H1403   0.992       .  S
C1405      C1406   1.406       .  A
C1405      C1410   1.408       .  A
C1406      C1407   1.410       .  A
C1406      H1411   1.083       .  S
C1407      C1408   1.415       .  A
C1407      O1412   1.371       .  S
C1408      C1409   1.407       .  A
C1409      C1410   1.395       .  A
C1409      H1413   1.084       .  S
C1410      O1414   1.372       .  S
O1412      H1416   0.991       .  S
O1414      H1415   0.991       .  S
C1417      C1418   1.405       .  A
C1417      C1422   1.415       .  A
C1418      C1419   1.405       .  A
C1418      H1423   1.083       .  S
C1419      C1420   1.411       .  A
C1419      O1424   1.372       .  S
C1420      C1421   1.399       .  A
C1421      C1422   1.397       .  A
C1421      H1425   1.084       .  S
C1422      O1426   1.373       .  S
O1424      H1428   0.991       .  S
O1426      H1427   0.993       .  S
C1429      C1430   1.412       .  A
C1429      C1434   1.418       .  A
C1430      C1431   1.406       .  A
C1430      H1435   1.082       .  S
C1431      C1432   1.410       .  A
C1431      O1436   1.373       .  S
C1432      C1433   1.407       .  A
C1433      C1434   1.416       .  A
C1433      H1437   1.083       .  S
C1434      O1438   1.370       .  S
O1436      H1440   0.991       .  S
O1438      H1439   0.991       .  S
C1441      C1442   1.402       .  A
C1441      C1446   1.414       .  A
C1442      C1443   1.397       .  A
C1442      H1447   1.084       .  S
C1443      C1444   1.411       .  A
C1443      O1448   1.373       .  S
C1444      C1445   1.403       .  A
C1445      C1446   1.408       .  A
C1445      H1449   1.083       .  S
C1446      O1450   1.370       .  S
O1448      H1452   0.993       .  S
O1450      H1451   0.990       .  S
C1453      C1454   1.402       .  A
C1453      C1458   1.407       .  A
C1454      C1455   1.396       .  A
C1454      H1459   1.084       .  S
C1455      C1456   1.415       .  A
C1455      O1460   1.372       .  S
C1456      C1457   1.410       .  A
C1457      C1458   1.408       .  A
C1457      H1461   1.083       .  S
C1458      O1462   1.372       .  S
O1460      H1464   0.990       .  S
O1462      H1463   0.990       .  S
C1465      C1466   1.409       .  A
C1465      C1470   1.409       .  A
C1466      C1467   1.418       .  A
C1466      H1471   1.083       .  S
C1467      C1468   1.417       .  A
C1467      O1472   1.370       .  S
C1468      C1469   1.414       .  A
C1469      C1470   1.403       .  A
C1469      H1473   1.082       .  S
C1470      O1474   1.372       .  S
O1472      H1476   0.993       .  S
O1474      H1475   0.991       .  S
C1477      C1478   1.404       .  A
C1477      C1482   1.406       .  A
C1478      C1479   1.405       .  A
C1478      H1483   1.084       .  S
C1479      C1480   1.415       .  A
C1479      O1484   1.371       .  S
C1480      C1481   1.408       .  A
C1481      C1482   1.397       .  A
C1481      H1485   1.083       .  S
C1482      O1486   1.372       .  S
O1484      H1488   0.993       .  S
O1486      H1487   0.992       .  S
C1489      C1490   1.398       .  A
C1489      C1494   1.413       .  A
C1490      C1491   1.397       .  A
C1490      H1495   1.084       .  S
C1491      C1492   1.413       .  A
C1491      O1496   1.372       .  S
C1492      C1493   1.402       .  A
C1493      C1494   1.407       .  A
C1493      H1497   1.083       .  S
C1494      O1498   1.372       .  S
O1496      H1500   0.992       .  S
O1498      H1499   0.992       .  S
C1501      C1502   1.409       .  A
C1501      C1506   1.417       .  A
C1502      C1503   1.414       .  A
C1502      H1507   1.081       .  S
C1503      C1504   1.414       .  A
C1503      O1508   1.371       .  S
C1504      C1505   1.405       .  A
C1505      C1506   1.404       .  A
C1505      H1509   1.084       .  S
C1506      O1510   1.370       .  S
O1508      H1512   0.992       .  S
O1510      H1511   0.993       .  S
C1513      C1514   1.407       .  A
C1513      C1518   1.404       .  A
C1514      C1515   1.406       .  A
C1514      H1519   1.084       .  S
C1515      C1516   1.411       .  A
C1515      O1520   1.371       .  S
C1516      C1517   1.407       .  A
C1517      C1518   1.398       .  A
C1517      H1521   1.084       .  S
C1518      O1522   1.373       .  S
O1520      H1524   0.991       .  S
O1522      H1523   0.991       .  S
C1525      C1526   1.406       .  A
C1525      C1530   1.405       .  A
C1526      C1527   1.408       .  A
C1526      H1531   1.084       .  S
C1527      C1528   1.413       .  A
C1527      O1532   1.371       .  S
C1528      C1529   1.408       .  A
C1529      C1530   1.396       .  A
C1529      H1533   1.083       .  S
C1530      O1534   1.374       .  S
O1532      H1536   0.990       .  S
O1534      H1535   0.992       .  S
C1537      C1538   1.413       .  A
C1537      C1542   1.422       .  A
C1538      C1539   1.411       .  A
C1538      H1543   1.081       .  S
C1539      C1540   1.409       .  A
C1539      O1544   1.371       .  S
C1540      C1541   1.400       .  A
C1541      C1542   1.401       .  A
C1541      H1545   1.084       .  S
C1542      O1546   1.370       .  S
O1544      H1548   0.991       .  S
O1546      H1547   0.992       .  S
C1549      C1550   1.404       .  A
C1549      C1554   1.406       .  A
C1550      C1551   1.408       .  A
C1550      H1555   1.084       .  S
C1551      C1552   1.415       .  A
C1551      O1556   1.371       .  S
C1552      C1553   1.407       .  A
C1553      C1554   1.394       .  A
C1553      H1557   1.083       .  S
C1554      O1558   1.373       .  S
O1556      H1560   0.991       .  S
O1558      H1559   0.990       .  S
C1561      C1562   1.402       .  A
C1561      C1566   1.412       .  A
C1562      C1563   1.400       .  A
C1562      H1567   1.084       .  S
C1563      C1564   1.412       .  A
C1563      O1568   1.373       .  S
C1564      C1565   1.405       .  A
C1565      C1566   1.409       .  A
C1565      H1569   1.083       .  S
C1566      O1570   1.372       .  S
O1568      H1572   0.992       .  S
O1570      H1571   0.992       .  S
C1573      C1574   1.412       .  A
C1573      C1578   1.422       .  A
C1574      C1575   1.413       .  A
C1574      H1579   1.080       .  S
C1575      C1576   1.410       .  A
C1575      O1580   1.371       .  S
C1576      C1577   1.400       .  A
C1577      C1578   1.402       .  A
C1577      H1581   1.084       .  S
C1578      O1582   1.368       .  S
O1580      H1584   0.989       .  S
O1582      H1583   0.991       .  S
C1585      C1586   1.403       .  A
C1585      C1590   1.413       .  A
C1586      C1587   1.402       .  A
C1586      H1591   1.084       .  S
C1587      C1588   1.410       .  A
C1587      O1592   1.372       .  S
C1588      C1589   1.404       .  A
C1589      C1590   1.408       .  A
C1589      H1593   1.083       .  S
C1590      O1594   1.371       .  S
O1592      H1596   0.991       .  S
O1594      H1595   0.991       .  S
C1597      C1598   1.402       .  A
C1597      C1602   1.409       .  A
C1598      C1599   1.396       .  A
C1598      H1603   1.084       .  S
C1599      C1600   1.416       .  A
C1599      O1604   1.372       .  S
C1600      C1601   1.408       .  A
C1601      C1602   1.410       .  A
C1601      H1605   1.083       .  S
C1602      O1606   1.371       .  S
O1604      H1608   0.991       .  S
O1606      H1607   0.992       .  S
C1609      C1610   1.414       .  A
C1609      C1614   1.417       .  A
C1610      C1611   1.407       .  A
C1610      H1615   1.082       .  S
C1611      C1612   1.410       .  A
C1611      O1616   1.373       .  S
C1612      C1613   1.408       .  A
C1613      C1614   1.415       .  A
C1613      H1617   1.083       .  S
C1614      O1618   1.368       .  S
O1616      H1620   0.993       .  S
O1618      H1619   0.993       .  S
