geometry optimzed in LAMMPS
_audit_creation_date              2020-12-01 
_audit_creation_method            'lammps2cif' 
_symmetry_space_group_name_H-M    'P1' 
_symmetry_Int_Tables_number       1 
_symmetry_cell_setting            triclinic 
loop_ 
_symmetry_equiv_pos_as_xyz 
  x,y,z 
_cell_length_a                    32.07768774 
_cell_length_b                    32.53334616837799 
_cell_length_c                    46.585481809621484 
_cell_angle_alpha                 90.59463312136052 
_cell_angle_beta                  90.35746318368878 
_cell_angle_gamma                 87.12827280110885 
loop_ 
_atom_site_label 
_atom_site_type_symbol 
_atom_site_fract_x 
_atom_site_fract_y 
_atom_site_fract_z 
_atom_site_charge 
C1          C  0.24289409  0.99067034  0.25067755    -0.02500
C2          C  0.46955424  0.23430545  0.01641036     0.02300
C3          C  0.46604408  0.22669536  0.98640848     0.02200
C4          C  0.00095807  0.21846726  0.97325670    -0.18300
C5          C  0.04092240  0.21165454  0.98481304     0.02300
C6          C  0.04565516  0.21123231  0.01514789     0.02200
C7          C  0.01119882  0.22395775  0.03188668    -0.18300
H8          H  0.01542083  0.22856813  0.05479988     0.04300
H9          H  0.99726474  0.21886485  0.95005041     0.04300
C10         C  0.23930464  0.98001641  0.75208744    -0.02500
C11         C  0.00729565  0.27362373  0.75060192    -0.02500
C12         C  0.21129606  0.43872058  0.01477088     0.02300
C13         C  0.20569260  0.44047576  0.98461177     0.02200
C14         C  0.24328792  0.97326676  0.96876033    -0.18300
C15         C  0.24008169  0.01238357  0.98172819     0.02300
C16         C  0.24272040  0.01553094  0.01223238     0.02200
C17         C  0.24482372  0.97961068  0.02833713    -0.18300
H18         H  0.24706315  0.98168959  0.05156948     0.04300
H19         H  0.24531107  0.97062057  0.94560685     0.04300
O20         O  0.32464890  0.27599493  0.88891145    -0.80100
O21         O  0.20842263  0.15936111  0.82560426    -0.80200
O22         O  0.25195554  0.18611357  0.92324819    -0.80200
O23         O  0.33214340  0.21974964  0.81453928    -0.80100
O24         O  0.24259847  0.15531561  0.88129715    -0.80200
O25         O  0.33638669  0.28342557  0.83080998    -0.80200
O26         O  0.27325435  0.16319279  0.81362844    -0.80100
O27         O  0.31769213  0.20962393  0.89180266    -0.80200
C28         C  0.33708081  0.24132789  0.89885953     1.09500
C29         C  0.24061379  0.14325050  0.81360044     1.09400
C30         C  0.24843771  0.15333996  0.90890826     1.09600
C31         C  0.35311696  0.25115623  0.81865813     1.09400
O32         O  0.24896763  0.31861061  0.82768422    -0.80100
O33         O  0.16194634  0.17964648  0.87292605    -0.80200
O34         O  0.25742853  0.26711626  0.91630040    -0.80200
O35         O  0.20940931  0.22828151  0.79471976    -0.80100
O36         O  0.17557421  0.24199399  0.83502888    -0.80200
O37         O  0.23866554  0.30944486  0.88259440    -0.80200
O38         O  0.27420734  0.28289012  0.79141714    -0.80100
O39         O  0.19192950  0.22994464  0.89564288    -0.80200
Co40       Co  0.28518305  0.29330440  0.85691606     1.51500
Co41       Co  0.21100555  0.20212252  0.85738561     1.51700
Co42       Co  0.25596988  0.21788610  0.89010487     1.51600
Co43       Co  0.27143298  0.22379032  0.80663382     1.51500
O44         O  0.26037320  0.23753005  0.84922865    -1.42100
C45         C  0.25886038  0.31668331  0.80187360     1.09500
C46         C  0.16154003  0.20566807  0.89328755     1.09600
C47         C  0.24185911  0.30173727  0.90884767     1.09500
C48         C  0.17603517  0.24108050  0.80784282     1.09500
O49         O  0.33327593  0.29712847  0.17208772    -0.80100
O50         O  0.25986021  0.15581944  0.11476790    -0.80200
O51         O  0.27968078  0.17165409  0.18495296    -0.80200
O52         O  0.33556003  0.21707811  0.11605895    -0.80100
O53         O  0.21834384  0.16171491  0.16772567    -0.80200
O54         O  0.33553162  0.28402331  0.11433578    -0.80200
O55         O  0.28561117  0.18331222  0.07580808    -0.80100
O56         O  0.33266038  0.23332083  0.18677397    -0.80200
C57         C  0.35191963  0.26590327  0.18391267     1.09500
C58         C  0.27337734  0.15198167  0.08844942     1.09400
C59         C  0.24961316  0.14843859  0.18231167     1.09600
C60         C  0.35362825  0.24899322  0.10917730     1.09400
O61         O  0.24580777  0.30829258  0.11032143    -0.80100
O62         O  0.18099254  0.24143596  0.15519889    -0.80200
O63         O  0.26721969  0.29322020  0.20423486    -0.80200
O64         O  0.21344842  0.22098953  0.09232708    -0.80100
O65         O  0.17860791  0.17654567  0.11687879    -0.80200
O66         O  0.24209979  0.32016954  0.16539912    -0.80200
O67         O  0.27792950  0.26653146  0.08061610    -0.80100
O68         O  0.20983098  0.23171166  0.19780928    -0.80200
Co69       Co  0.28731400  0.29930368  0.14093462     1.51500
Co70       Co  0.22221391  0.20299099  0.13565455     1.51700
Co71       Co  0.27210563  0.23242455  0.19054477     1.51600
Co72       Co  0.27563379  0.21812054  0.10764529     1.51500
O73         O  0.26676333  0.24187142  0.14718861    -1.42100
C74         C  0.25527969  0.29898167  0.08495585     1.09500
C75         C  0.17799138  0.24239339  0.18237152     1.09600
C76         C  0.25013352  0.32420364  0.19131565     1.09500
C77         C  0.18271106  0.19687825  0.09411054     1.09500
O78         O  0.07577181  0.01391450  0.65843027    -0.80100
O79         O  0.49780881  0.44841057  0.61393265    -0.80200
O80         O  0.98284201  0.47300051  0.70680478    -0.80200
O81         O  0.03378616  0.52902063  0.59313662    -0.80100
O82         O  0.50396300  0.43461994  0.66939878    -0.80200
O83         O  0.08201830  0.07140509  0.61565546    -0.80200
O84         O  0.96603093  0.49196998  0.58313004    -0.80100
O85         O  0.04106720  0.53229985  0.69920379    -0.80200
C86         C  0.07961747  0.01688664  0.68547962     1.09500
C87         C  0.48618755  0.45666103  0.58876929     1.09400
C88         C  0.49959000  0.43551225  0.69600395     1.09600
C89         C  0.07364727  0.04734809  0.59486444     1.09400
O90         O  0.00150886  0.10147084  0.61782594    -0.80100
O91         O  0.41599068  0.46501758  0.67798503    -0.80200
O92         O  0.48078541  0.08804645  0.68535411    -0.80200
O93         O  0.42274460  0.04274965  0.61826579    -0.80100
O94         O  0.41152730  0.48048041  0.62047360    -0.80200
O95         O  0.04227633  0.09750515  0.66924791    -0.80200
O96         O  0.47612947  0.07035936  0.57814178    -0.80100
O97         O  0.42352580  0.02683225  0.68975099    -0.80200
Co98       Co  0.03637851  0.05296572  0.63813852     1.51500
Co99       Co  0.45946529  0.46026572  0.64575524     1.51700
Co100      Co  0.98511931  0.03094515  0.69414905     1.51600
Co101      Co  0.97946196  0.04148187  0.61171651     1.51500
O102        O  0.98884871  0.01837588  0.65124915    -1.42100
C103        C  0.98701653  0.10653244  0.59204365     1.09500
C104        C  0.39919884  0.49698345  0.69033094     1.09600
C105        C  0.01159841  0.11275792  0.68397057     1.09500
C106        C  0.39670079  0.51613793  0.61369388     1.09500
O107        O  0.04683150  0.09302158  0.32648407    -0.80100
O108        O  0.41684484  0.48021861  0.38940684    -0.80200
O109        O  0.41724252  0.02525576  0.31616756    -0.80200
O110        O  0.50187226  0.06598756  0.42259195    -0.80100
O111        O  0.40858722  0.46211247  0.33203334    -0.80200
O112        O  0.01579307  0.10254943  0.38006477    -0.80200
O113        O  0.43712143  0.04092887  0.39904536    -0.80100
O114        O  0.47546703  0.08396376  0.31427084    -0.80200
C115        C  0.01613548  0.11018214  0.31314037     1.09500
C116        C  0.40832950  0.51530731  0.40123116     1.09400
C117        C  0.39095261  0.49239059  0.31897858     1.09600
C118        C  0.01009091  0.10482150  0.40724500     1.09400
O119        O  0.09229730  0.06582895  0.37500592    -0.80100
O120        O  0.49498326  0.42905437  0.33136715    -0.80200
O121        O  0.03388634  0.52575007  0.29440107    -0.80200
O122        O  0.98806559  0.47997176  0.42043101    -0.80100
O123        O  0.50418316  0.44382783  0.38563755    -0.80200
O124        O  0.07336986  0.00864326  0.33503508    -0.80200
O125        O  0.05639332  0.51847651  0.39853658    -0.80100
O126        O  0.97278083  0.46634118  0.29272689    -0.80200
Co127      Co  0.04143475  0.05153979  0.35780507     1.51500
Co128      Co  0.45809677  0.45814600  0.35891775     1.51700
Co129      Co  0.97282445  0.52689313  0.30698866     1.51600
Co130      Co  0.99267340  0.52488115  0.39373720     1.51500
O131        O  0.98405445  0.51831253  0.35032262    -1.42100
C132        C  0.09053453  0.03977919  0.39509153     1.09500
C133        C  0.48750530  0.42907348  0.30503411     1.09600
C134        C  0.07493051  0.01199959  0.30794298     1.09500
C135        C  0.49660326  0.44656170  0.41188578     1.09500
C136        C  0.50875758  0.31515959  0.51549834     0.02300
C137        C  0.52174794  0.31132094  0.48681397     0.02200
C138        C  0.52538958  0.27227080  0.47399985    -0.18300
C139        C  0.51307294  0.23733387  0.48819375     0.02300
C140        C  0.49883153  0.24134479  0.51699162     0.02200
C141        C  0.49676551  0.28041909  0.53000791    -0.18300
H142        H  0.48680292  0.28369364  0.55217589     0.04300
H143        H  0.53446753  0.26960212  0.45160755     0.04300
C144        C  0.28271565  0.01809549  0.51920357     0.02300
C145        C  0.28744523  0.01056960  0.48941780     0.02200
C146        C  0.24906365  0.52123745  0.47211181    -0.18300
C147        C  0.21170784  0.01441400  0.48388042     0.02300
C148        C  0.20666067  0.01761752  0.51406221     0.02200
C149        C  0.24259079  0.02189179  0.53082362    -0.18300
H150        H  0.23943959  0.02717640  0.55375588     0.04300
H151        H  0.25297661  0.52001971  0.44894542     0.04300
C152        C  0.51216742  0.26160788  0.24968363    -0.02500
C153        C  0.46005455  0.36681572  0.28117918    -0.05800
C154        C  0.49490228  0.38904851  0.28883470     0.00100
C155        C  0.03756035  0.37434713  0.28204801    -0.08400
C156        C  0.04061597  0.33744789  0.26601850    -0.05800
C157        C  0.50393480  0.30556734  0.26512002     0.00100
C158        C  0.46334110  0.32462147  0.27259366    -0.08300
C159        C  0.42219581  0.30315605  0.27411637     0.62000
H160        H  0.42937419  0.38125215  0.28516138     0.12700
H161        H  0.07146129  0.32862537  0.25920868     0.12700
C162        C  0.07840980  0.38797436  0.29503013     0.62300
F163        F  0.39502071  0.31854674  0.25329818    -0.22900
F164        F  0.40383060  0.31158116  0.30047073    -0.20200
F165        F  0.42640217  0.26100355  0.27128776    -0.19900
F166        F  0.09372347  0.35791596  0.31363118    -0.20000
F167        F  0.07459621  0.42441227  0.31026739    -0.20300
F168        F  0.10747524  0.39216665  0.27358161    -0.22900
C169        C  0.04450054  0.19340112  0.26099504    -0.05800
C170        C  0.01883224  0.22877228  0.26925440     0.00100
C171        C  0.49516342  0.21924637  0.30037014    -0.08400
C172        C  0.49024561  0.17941166  0.31199462    -0.05800
C173        C  0.01991319  0.15073234  0.29901579     0.00100
C174        C  0.04655494  0.15572786  0.27563253    -0.08300
C175        C  0.07537962  0.12053954  0.26495426     0.62000
H176        H  0.06283565  0.19395824  0.24185323     0.12700
H177        H  0.47437324  0.17641424  0.33232694     0.12700
C178        C  0.48794676  0.25235610  0.32372405     0.62300
F179        F  0.09882701  0.13125502  0.24159423    -0.22900
F180        F  0.05224656  0.08758967  0.25688636    -0.20200
F181        F  0.10274138  0.10896609  0.28664615    -0.19900
F182        F  0.44592442  0.25673430  0.32994816    -0.20000
F183        F  0.50288090  0.29002616  0.31828156    -0.20300
F184        F  0.50860409  0.23957262  0.34855894    -0.22900
C185        C  0.47940370  0.20032901  0.44857074    -0.05800
C186        C  0.01683224  0.20308813  0.46924170     0.00100
C187        C  0.04795953  0.17101130  0.46827902    -0.08400
C188        C  0.04415000  0.13937070  0.44765076    -0.05800
C189        C  0.01374803  0.14192931  0.42555410     0.00100
C190        C  0.47781926  0.16949853  0.42725377    -0.08300
C191        C  0.44413241  0.17498588  0.40447084     0.62000
H192        H  0.45679009  0.22622246  0.44780494     0.12700
H193        H  0.06610413  0.11298300  0.44788142     0.12700
C194        C  0.08714594  0.17285386  0.48660529     0.62300
F195        F  0.40566848  0.18116790  0.41746547    -0.22900
F196        F  0.44200422  0.14190129  0.38584650    -0.20200
F197        F  0.45192330  0.20935310  0.38863160    -0.19900
F198        F  0.11300426  0.13803119  0.48315808    -0.20000
F199        F  0.07734789  0.17655440  0.51524852    -0.20300
F200        F  0.10895975  0.20655770  0.47878756    -0.22900
C201        C  0.04100590  0.41807952  0.45198726    -0.05800
C202        C  0.50379546  0.41219225  0.43050988     0.00100
C203        C  0.48217414  0.37610756  0.42616447    -0.08400
C204        C  0.48871514  0.34481559  0.44588099    -0.05800
C205        C  0.51940274  0.34671640  0.46741402     0.00100
C206        C  0.05189142  0.38509104  0.47001894    -0.08300
C207        C  0.08783530  0.39054073  0.49074128     0.62000
H208        H  0.05555955  0.44723167  0.45510016     0.12700
H209        H  0.47028933  0.31787383  0.44428128     0.12700
C210        C  0.45281774  0.37019816  0.40080716     0.62300
F211        F  0.12200748  0.40292174  0.47568810    -0.22900
F212        F  0.09972027  0.35456007  0.50463259    -0.20200
F213        F  0.07692823  0.42068593  0.51088485    -0.19900
F214        F  0.47503379  0.37072096  0.37550509    -0.20000
F215        F  0.42171470  0.40100456  0.40039988    -0.20300
F216        F  0.43382833  0.33300886  0.40193230    -0.22900
C217        C  0.14218057  0.06643984  0.42821814    -0.05800
C218        C  0.12546285  0.03226618  0.41488783     0.00100
C219        C  0.13848334  0.99202210  0.42347377    -0.08400
C220        C  0.16293246  0.98746159  0.44841919    -0.05800
C221        C  0.17827645  0.02176943  0.46261149     0.00100
C222        C  0.17071440  0.06162443  0.45092793    -0.08300
C223        C  0.19508743  0.09820531  0.46078093     0.62000
H224        H  0.13318326  0.09686908  0.42038850     0.12700
H225        H  0.17273661  0.95705061  0.45589078     0.12700
C226        C  0.13082195  0.95474538  0.40456511     0.62300
F227        F  0.18030526  0.13445183  0.44813466    -0.22900
F228        F  0.23645103  0.09173356  0.45312835    -0.20200
F229        F  0.18259509  0.61124253  0.49015267    -0.19900
F230        F  0.14323754  0.96236135  0.37680975    -0.20000
F231        F  0.09400160  0.44662540  0.40378695    -0.20300
F232        F  0.16020653  0.42627679  0.41245259    -0.22900
C233        C  0.36601274  0.48166681  0.43780116    -0.05800
C234        C  0.37745786  0.51867021  0.42526602     0.00100
C235        C  0.36297582  0.55653401  0.43826607    -0.08400
C236        C  0.33680897  0.55562738  0.46237992    -0.05800
C237        C  0.32440078  0.51869541  0.47400470     0.00100
C238        C  0.33962098  0.48100019  0.46175377    -0.08300
C239        C  0.32684231  0.44014937  0.47351786     0.62000
H240        H  0.37775302  0.45277645  0.42866549     0.12700
H241        H  0.31929556  0.07573240  0.46806066     0.12700
C242        C  0.37400487  0.09212632  0.42657691     0.62300
F243        F  0.28420496  0.43688001  0.47075978    -0.22900
F244        F  0.33773190  0.43763431  0.50219515    -0.20200
F245        F  0.36276362  0.90079838  0.46416550    -0.19900
F246        F  0.35213919  0.63024810  0.44045267    -0.20000
F247        F  0.36826796  0.09354678  0.39715468    -0.20300
F248        F  0.41480543  0.09960476  0.43354825    -0.22900
C249        C  0.12778403  0.54496433  0.52186199    -0.05800
C250        C  0.16632135  0.01617581  0.53003097     0.00100
C251        C  0.16416550  0.99317833  0.55576445    -0.08400
C252        C  0.13489652  0.00581337  0.57676594    -0.05800
C253        C  0.10414062  0.03679941  0.57151849     0.00100
C254        C  0.09986591  0.05164554  0.54295920    -0.08300
C255        C  0.05429647  0.57207756  0.53000769     0.62000
H256        H  0.12697381  0.56111932  0.50179581     0.12700
H257        H  0.13475136  0.98975993  0.59688651     0.12700
C258        C  0.19179528  0.95496761  0.56178912     0.62300
F259        F  0.06105958  0.08157412  0.50352898    -0.22900
F260        F  0.05803678  0.11266429  0.54646562    -0.20200
F261        F  0.02091455  0.54927905  0.53708501    -0.19900
F262        F  0.22033903  0.96345424  0.58313156    -0.20000
F263        F  0.21476625  0.44726252  0.53784233    -0.20300
F264        F  0.16738317  0.92385940  0.57103651    -0.22900
C265        C  0.35857773  0.55616598  0.57563832    -0.05800
C266        C  0.36258960  0.51975074  0.59180675     0.00100
C267        C  0.33872881  0.48586125  0.58340305    -0.08400
C268        C  0.31588668  0.48827333  0.55765894    -0.05800
C269        C  0.31270969  0.52424924  0.54133557     0.00100
C270        C  0.33221197  0.55970381  0.55145733    -0.08300
C271        C  0.32603307  0.60190939  0.53805693     0.62000
H272        H  0.37597260  0.58252205  0.58199264     0.12700
H273        H  0.30193252  0.95593040  0.55131313     0.12700
C274        C  0.33638258  0.44726891  0.60127648     0.62300
F275        F  0.33077050  0.12483749  0.55411639    -0.22900
F276        F  0.29853225  0.09714427  0.51674181    -0.20200
F277        F  0.36197820  0.61075154  0.52374468    -0.19900
F278        F  0.34163006  0.95171729  0.62897800    -0.20000
F279        F  0.37204759  0.42212182  0.59766952    -0.20300
F280        F  0.30245326  0.42479358  0.59355735    -0.22900
C281        C  0.45820181  0.14757195  0.55467086    -0.05800
C282        C  0.98770007  0.14673287  0.57658852     0.00100
C283        C  0.01961912  0.17574171  0.58003650    -0.08400
C284        C  0.02300894  0.20577999  0.55889475    -0.05800
C285        C  0.99567304  0.20989624  0.53541285     0.00100
C286        C  0.45935579  0.17973041  0.53474594    -0.08300
C287        C  0.42423589  0.18380865  0.51287585     0.62000
H288        H  0.43378880  0.12587901  0.55237203     0.12700
H289        H  0.04877676  0.22609468  0.56000921     0.12700
C290        C  0.05554898  0.17331839  0.60172641     0.62300
F291        F  0.38634618  0.18217833  0.52670187    -0.22900
F292        F  0.42815786  0.15152713  0.49336580    -0.20200
F293        F  0.42359464  0.22049643  0.49821932    -0.19900
F294        F  0.08858386  0.14952110  0.59063839    -0.20000
F295        F  0.04474660  0.15774692  0.62761940    -0.20300
F296        F  0.06942914  0.21221365  0.60754759    -0.22900
C297        C  0.47869180  0.38584178  0.52346992    -0.05800
C298        C  0.50808191  0.35455762  0.53140553     0.00100
C299        C  0.03708606  0.36208034  0.55614467    -0.08400
C300        C  0.02858872  0.39708761  0.57296947    -0.05800
C301        C  0.49573883  0.42565575  0.56589870     0.00100
C302        C  0.47286448  0.42222123  0.53984229    -0.08300
C303        C  0.44151838  0.45538326  0.52961929     0.62000
H304        H  0.45933955  0.38086927  0.50475278     0.12700
H305        H  0.04555279  0.39978103  0.59305823     0.12700
C306        C  0.06973764  0.33068941  0.56763257     0.62300
F307        F  0.42488668  0.44599759  0.50299609    -0.22900
F308        F  0.46055418  0.49226803  0.52716002    -0.20200
F309        F  0.40918598  0.45981591  0.54886773    -0.19900
F310        F  0.10524400  0.35049700  0.57564790    -0.20000
F311        F  0.08175037  0.30045675  0.54790025    -0.20300
F312        F  0.05397798  0.31210503  0.59155173    -0.22900
C313        C  0.13674440  0.25345792  0.22721296    -0.05800
C314        C  0.13678956  0.25358013  0.19716463     0.00100
C315        C  0.09808722  0.26328359  0.18311897    -0.08400
C316        C  0.06095466  0.26807358  0.19962079    -0.05800
C317        C  0.05984602  0.26631592  0.23019085     0.00100
C318        C  0.10061437  0.26069201  0.24400535    -0.08300
C319        C  0.11049758  0.26038632  0.27622165     0.62000
H320        H  0.16620143  0.24749751  0.23832046     0.12700
H321        H  0.03239814  0.27270731  0.18777743     0.12700
C322        C  0.09526260  0.26879702  0.15074932     0.62300
F323        F  0.12657199  0.22172035  0.28383384    -0.22900
F324        F  0.07739054  0.27052735  0.29377352    -0.20200
F325        F  0.14052761  0.28853129  0.28198073    -0.19900
F326        F  0.10535513  0.23184940  0.13697163    -0.20000
F327        F  0.12228981  0.29820983  0.14234578    -0.20300
F328        F  0.05557209  0.28187206  0.14181707    -0.22900
C329        C  0.41234971  0.22861491  0.20745065    -0.05800
C330        C  0.39588967  0.26596913  0.19615906     0.00100
C331        C  0.42256920  0.29955516  0.19625167    -0.08400
C332        C  0.46131469  0.29565427  0.21134822    -0.05800
C333        C  0.47603325  0.25883403  0.22547473     0.00100
C334        C  0.45347099  0.22322942  0.21792108    -0.08300
C335        C  0.47371456  0.18116670  0.21079623     0.62000
H336        H  0.39438940  0.20137871  0.20541508     0.12700
H337        H  0.47996005  0.32235302  0.21324271     0.12700
C338        C  0.41007595  0.33979685  0.18164398     0.62300
F339        F  0.45479182  0.16373140  0.18706718    -0.22900
F340        F  0.46912103  0.15475785  0.23340769    -0.20200
F341        F  0.51491690  0.18410497  0.20327451    -0.19900
F342        F  0.37465344  0.35754811  0.19436718    -0.20000
F343        F  0.40236972  0.33251406  0.15283224    -0.20300
F344        F  0.44116183  0.36773990  0.18358731    -0.22900
C345        C  0.22798178  0.09945849  0.06897204    -0.05800
C346        C  0.26856069  0.11355566  0.07133221     0.00100
C347        C  0.29996689  0.09619786  0.05286588    -0.08400
C348        C  0.28930130  0.06586886  0.03276464    -0.05800
C349        C  0.24816404  0.05405398  0.02895692     0.00100
C350        C  0.21694737  0.07077978  0.04776721    -0.08300
C351        C  0.17171922  0.05927322  0.04683861     0.62000
H352        H  0.20382497  0.11257952  0.08291709     0.12700
H353        H  0.31376938  0.04908363  0.02104922     0.12700
C354        C  0.34533900  0.10632643  0.05600948     0.62300
F355        F  0.14631292  0.09456204  0.04372836    -0.22900
F356        F  0.16205565  0.04068706  0.07235075    -0.20200
F357        F  0.16298094  0.03284400  0.02448015    -0.19900
F358        F  0.35906957  0.09454162  0.08295969    -0.20000
F359        F  0.34995165  0.14785937  0.05232918    -0.20300
F360        F  0.37055705  0.08563341  0.03600127    -0.22900
C361        C  0.25477172  0.37481131  0.02352194    -0.05800
C362        C  0.21890856  0.39930485  0.03023639     0.00100
C363        C  0.19104692  0.38572884  0.05119247    -0.08400
C364        C  0.20277924  0.35052583  0.06704462    -0.05800
C365        C  0.24051468  0.32780217  0.06198159     0.00100
C366        C  0.26501791  0.33808696  0.03813666    -0.08300
C367        C  0.30355365  0.31270122  0.02950894     0.62000
H368        H  0.27520853  0.38523698  0.00697913     0.12700
H369        H  0.18326261  0.34158286  0.08459103     0.12700
C370        C  0.14966890  0.40863926  0.05751211     0.62300
F371        F  0.29409946  0.27225138  0.02458100    -0.22900
F372        F  0.33200987  0.31471824  0.05142924    -0.20200
F373        F  0.32143376  0.32708743  0.00482477    -0.19900
F374        F  0.12886584  0.41827057  0.03217361    -0.20000
F375        F  0.15656540  0.44432038  0.07270093    -0.20300
F376        F  0.12393838  0.38523497  0.07378279    -0.22900
C377        C  0.27740173  0.06934409  0.96188271    -0.05800
C378        C  0.24069091  0.04818918  0.96240274     0.00100
C379        C  0.20878057  0.05778624  0.94184632    -0.08400
C380        C  0.21428810  0.09038916  0.92276997    -0.05800
C381        C  0.24952221  0.11404409  0.92441520     0.00100
C382        C  0.28198951  0.10290133  0.94391167    -0.08300
C383        C  0.32267916  0.12425315  0.94430288     0.62000
H384        H  0.30322040  0.05843568  0.97508476     0.12700
H385        H  0.19059613  0.09839504  0.90687774     0.12700
C386        C  0.16908600  0.03422876  0.93993708     0.62300
F387        F  0.35127661  0.10584423  0.96313994    -0.22900
F388        F  0.31634658  0.16484490  0.95283806    -0.20200
F389        F  0.33919422  0.12201186  0.91698812    -0.19900
F390        F  0.13966995  0.05358973  0.92215054    -0.20000
F391        F  0.15165551  0.03122034  0.96681600    -0.20300
F392        F  0.17766367  0.99519523  0.92890625    -0.22900
C393        C  0.19709218  0.36698636  0.97061069    -0.05800
C394        C  0.21502353  0.40461109  0.96519269     0.00100
C395        C  0.24394681  0.40679426  0.94223838    -0.08400
C396        C  0.24832430  0.37342713  0.92321789    -0.05800
C397        C  0.23229933  0.33538082  0.92958018     0.00100
C398        C  0.20965187  0.33115986  0.95520895    -0.08300
C399        C  0.20225117  0.28959103  0.96773052     0.62000
H400        H  0.17577167  0.36517987  0.98840171     0.12700
H401        H  0.26752041  0.37595396  0.90428913     0.12700
C402        C  0.27289738  0.44206014  0.93836269     0.62300
F403        F  0.17932360  0.29307764  0.99279287    -0.22900
F404        F  0.24042276  0.26996203  0.97397018    -0.20200
F405        F  0.18105247  0.26588117  0.94857565    -0.19900
F406        F  0.28418544  0.45870908  0.96455740    -0.20000
F407        F  0.25381427  0.47231894  0.92150753    -0.20300
F408        F  0.30947997  0.42828442  0.92494406    -0.22900
C409        C  0.01296469  0.19594952  0.74285619    -0.05800
C410        C  0.00827626  0.23463287  0.72838395     0.00100
C411        C  0.00795258  0.23121024  0.69709204    -0.08400
C412        C  0.00612909  0.19112585  0.68406476    -0.05800
C413        C  0.01258416  0.15419122  0.69917673     0.00100
C414        C  0.01755971  0.15710733  0.72914232    -0.08300
C415        C  0.52532686  0.11362376  0.74628217     0.62000
H416        H  0.51599397  0.19126889  0.76555087     0.12700
H417        H  0.00040328  0.18817541  0.66138054     0.12700
C418        C  0.01457000  0.26588558  0.67590104     0.62300
F419        F  0.03574721  0.12848047  0.77538783    -0.22900
F420        F  0.06568979  0.10046899  0.73613615    -0.20200
F421        F  0.49353604  0.08696241  0.74230882    -0.19900
F422        F  0.05586972  0.27575561  0.67684081    -0.20000
F423        F  0.49349890  0.29631544  0.68137217    -0.20300
F424        F  0.00653073  0.25413344  0.64781821    -0.22900
C425        C  0.03731593  0.33256569  0.72187915    -0.05800
C426        C  0.50507220  0.31490776  0.73867590     0.00100
C427        C  0.47238614  0.34730864  0.74399341    -0.08400
C428        C  0.47211451  0.38424904  0.72829327    -0.05800
C429        C  0.50517739  0.39554861  0.71177046     0.00100
C430        C  0.03744546  0.37046910  0.70697594    -0.08300
C431        C  0.07166272  0.37735880  0.68543476     0.62000
H432        H  0.06393773  0.31142025  0.71945621     0.12700
H433        H  0.44531760  0.40596168  0.72950216     0.12700
C434        C  0.43780427  0.34996390  0.76643111     0.62300
F435        F  0.10443713  0.34823643  0.68775923    -0.22900
F436        F  0.08732123  0.41576032  0.68964296    -0.20200
F437        F  0.05552017  0.37480536  0.65790317    -0.19900
F438        F  0.44597820  0.32763300  0.79059398    -0.20000
F439        F  0.40105445  0.33923791  0.75354529    -0.20300
F440        F  0.43178936  0.38999003  0.77672072    -0.22900
C441        C  0.08584340  0.24727129  0.75262514    -0.05800
C442        C  0.05266011  0.27033405  0.76691392     0.00100
C443        C  0.06661236  0.29211716  0.79235915    -0.08400
C444        C  0.10646636  0.28076079  0.80472209    -0.05800
C445        C  0.13585099  0.25293327  0.79180229     0.00100
C446        C  0.12529257  0.23673014  0.76465352    -0.08300
C447        C  0.15464195  0.20690107  0.74838258     0.62000
H448        H  0.08173490  0.23757411  0.73070604     0.12700
H449        H  0.11585564  0.29470877  0.82475513     0.12700
C450        C  0.04384883  0.32983593  0.80594152     0.62300
F451        F  0.13686249  0.19186701  0.72347002    -0.22900
F452        F  0.16499214  0.17354438  0.76560895    -0.20200
F453        F  0.19013820  0.22647599  0.74070783    -0.19900
F454        F  0.00815328  0.31959252  0.81962318    -0.20000
F455        F  0.03486215  0.35937222  0.78560012    -0.20300
F456        F  0.06807908  0.34850146  0.82654260    -0.22900
C457        C  0.47043061  0.24745192  0.79777740    -0.05800
C458        C  0.46802211  0.25816049  0.76820788     0.00100
C459        C  0.42647546  0.25642207  0.75549363    -0.08400
C460        C  0.39131018  0.25493089  0.77350580    -0.05800
C461        C  0.39410463  0.25231258  0.80318310     0.00100
C462        C  0.43429923  0.24606491  0.81557889    -0.08300
C463        C  0.43861578  0.23817768  0.84742140     0.62000
H464        H  0.50084084  0.24139021  0.80729125     0.12700
H465        H  0.36010703  0.25586838  0.76446079     0.12700
C466        C  0.41657923  0.25512258  0.72336061     0.62300
F467        F  0.47996769  0.23223829  0.85573063    -0.22900
F468        F  0.41787889  0.20338797  0.85433930    -0.20200
F469        F  0.42130636  0.27151728  0.86258150    -0.19900
F470        F  0.43119805  0.21819009  0.71156143    -0.20000
F471        F  0.43299367  0.28752316  0.70968176    -0.20300
F472        F  0.37412737  0.25795177  0.71753076    -0.22900
C473        C  0.30418479  0.51757348  0.74045757    -0.05800
C474        C  0.27423968  0.48829312  0.73186869     0.00100
C475        C  0.28935093  0.46065927  0.70903928    -0.08400
C476        C  0.32976707  0.46459080  0.69700697    -0.05800
C477        C  0.35669221  0.49558510  0.70477840     0.00100
C478        C  0.34306347  0.52295087  0.72709024    -0.08300
C479        C  0.37001888  0.55721743  0.73815039     0.62000
H480        H  0.29902839  0.53636386  0.75916965     0.12700
H481        H  0.34066581  0.44237630  0.68092931     0.12700
C482        C  0.26679576  0.42515475  0.69574662     0.62300
F483        F  0.36845443  0.05994571  0.76883420    -0.22900
F484        F  0.38549099  0.07694515  0.72438518    -0.20200
F485        F  0.40865992  0.54078438  0.74674683    -0.19900
F486        F  0.26841024  0.92286890  0.66849057    -0.20000
F487        F  0.22763524  0.42107130  0.70589692    -0.20300
F488        F  0.28958472  0.38867642  0.70075084    -0.22900
C489        C  0.19720881  0.99190143  0.70414284    -0.05800
C490        C  0.19693294  0.99002807  0.73454950     0.00100
C491        C  0.15699198  0.00174953  0.74781207    -0.08400
C492        C  0.12129909  0.00988006  0.73053137    -0.05800
C493        C  0.12122880  0.00717781  0.70060335     0.00100
C494        C  0.16040613  0.99780594  0.68710692    -0.08300
C495        C  0.16393472  0.99348359  0.65484214     0.62000
H496        H  0.22652747  0.98818683  0.69325378     0.12700
H497        H  0.09218540  0.01910650  0.74085140     0.12700
C498        C  0.14935634  0.00906207  0.77990155     0.62300
F499        F  0.20430618  0.98311326  0.64609883    -0.22900
F500        F  0.15172304  0.03040775  0.64219941    -0.20200
F501        F  0.13765063  0.47287626  0.64319452    -0.19900
F502        F  0.15847252  0.04885135  0.78727160    -0.20000
F503        F  0.16572014  0.48013959  0.79557702    -0.20300
F504        F  0.10002301  0.49884426  0.78676473    -0.22900
C505        C  0.24095141  0.06610878  0.81570930    -0.05800
C506        C  0.24023505  0.10188318  0.79896157     0.00100
C507        C  0.24238650  0.09690505  0.76884489    -0.08400
C508        C  0.23930209  0.05747547  0.75686596    -0.05800
C509        C  0.24024753  0.02009552  0.77278399     0.00100
C510        C  0.24438162  0.02525601  0.80374688    -0.08300
C511        C  0.25745664  0.99128754  0.82495723     0.62000
H512        H  0.24188507  0.07088940  0.83872670     0.12700
H513        H  0.23917416  0.05554862  0.73361161     0.12700
C514        C  0.24956313  0.13099601  0.74757941     0.62300
F515        F  0.25383464  0.00473523  0.85318362    -0.22900
F516        F  0.29900655  0.97993035  0.82084394    -0.20200
F517        F  0.23364164  0.95737211  0.82274907    -0.19900
F518        F  0.28669472  0.12187964  0.73336362    -0.20000
F519        F  0.25202743  0.16939737  0.75999855    -0.20300
F520        F  0.21754176  0.13275935  0.72752692    -0.22900
C521        C  0.27405871  0.42463086  0.77380399    -0.05800
C522        C  0.23400235  0.43794704  0.76318749     0.00100
C523        C  0.20349767  0.40521232  0.76157248    -0.08400
C524        C  0.21451221  0.36617749  0.77379927    -0.05800
C525        C  0.25357070  0.35562546  0.78519180     0.00100
C526        C  0.28369593  0.38552960  0.78558302    -0.08300
C527        C  0.32547725  0.37680655  0.80005352     0.62000
H528        H  0.29865163  0.44597641  0.77358771     0.12700
H529        H  0.19176272  0.34283218  0.77557828     0.12700
C530        C  0.15901111  0.40623989  0.74836613     0.62300
F531        F  0.35276937  0.40765945  0.79548046    -0.22900
F532        F  0.34324684  0.34043304  0.78939639    -0.20200
F533        F  0.31984905  0.37326699  0.82930407    -0.19900
F534        F  0.15605045  0.42434216  0.72196147    -0.20000
F535        F  0.13053486  0.42463200  0.76699571    -0.20300
F536        F  0.14540292  0.36699488  0.74334635    -0.22900
C537        C  0.11358006  0.17643840  0.07719617    -0.05800
C538        C  0.15111781  0.19435847  0.07072264     0.00100
C539        C  0.15740206  0.20691985  0.04195790    -0.08400
C540        C  0.12260884  0.21211016  0.02369006    -0.05800
C541        C  0.08402943  0.19741796  0.03120963     0.00100
C542        C  0.08148487  0.17432042  0.05693916    -0.08300
C543        C  0.04577334  0.14743035  0.06440843     0.62000
H544        H  0.10941876  0.16275964  0.09804105     0.12700
H545        H  0.12569431  0.22840244  0.00380141     0.12700
C546        C  0.20015601  0.21092237  0.02926374     0.62300
F547        F  0.06182592  0.10942202  0.07344563    -0.22900
F548        F  0.01973168  0.14050733  0.04130954    -0.20200
F549        F  0.02279926  0.16562946  0.08656716    -0.19900
F550        F  0.22572911  0.17756820  0.03680163    -0.20000
F551        F  0.21693837  0.24674700  0.03871722    -0.20300
F552        F  0.19852040  0.21097014  0.99958855    -0.22900
C553        C  0.40186214  0.28119448  0.07531097    -0.05800
C554        C  0.39013516  0.24563995  0.08940519     0.00100
C555        C  0.40831732  0.20727680  0.08020036    -0.08400
C556        C  0.42639474  0.20459966  0.05271129    -0.05800
C557        C  0.43499832  0.24000083  0.03709924     0.00100
C558        C  0.42507881  0.27918814  0.04975870    -0.08300
C559        C  0.43936691  0.31971694  0.03817771     0.62000
H560        H  0.39225354  0.31115001  0.08408999     0.12700
H561        H  0.43891981  0.17509357  0.04485158     0.12700
C562        C  0.41698211  0.17239266  0.10134392     0.62300
F563        F  0.46211397  0.33904874  0.05922540    -0.22900
F564        F  0.40490944  0.34494243  0.03122143    -0.20200
F565        F  0.46412596  0.31529401  0.01409113    -0.19900
F566        F  0.44152865  0.14060461  0.08929757    -0.20000
F567        F  0.38101858  0.15587919  0.11087743    -0.20300
F568        F  0.43822861  0.18752116  0.12479741    -0.22900
C569        C  0.07990475  0.24423741  0.94688758    -0.05800
C570        C  0.07512995  0.20877848  0.96345863     0.00100
C571        C  0.09636409  0.17135140  0.95507535    -0.08400
C572        C  0.12358347  0.17166379  0.93153871    -0.05800
C573        C  0.12841032  0.20710433  0.91521395     0.00100
C574        C  0.10488886  0.24363693  0.92219369    -0.08300
C575        C  0.10403217  0.28077330  0.90263862     0.62000
H576        H  0.06200179  0.27215846  0.95275523     0.12700
H577        H  0.14112094  0.14364191  0.92573924     0.12700
C578        C  0.09106340  0.13010471  0.96915073     0.62300
F579        F  0.07555647  0.31142572  0.91182151    -0.22900
F580        F  0.09259441  0.26878160  0.87526576    -0.20200
F581        F  0.14277572  0.29733487  0.90162328    -0.19900
F582        F  0.06209831  0.13148636  0.99087784    -0.20000
F583        F  0.12903515  0.11584106  0.98037123    -0.20300
F584        F  0.07809596  0.10235393  0.94868863    -0.22900
C585        C  0.39080430  0.20052627  0.92693088    -0.05800
C586        C  0.37040555  0.23893629  0.92178426     0.00100
C587        C  0.38008625  0.27279301  0.94016236    -0.08400
C588        C  0.40747851  0.26586742  0.96359046    -0.05800
C589        C  0.42718753  0.22741834  0.96878046     0.00100
C590        C  0.41862782  0.19388900  0.95014731    -0.08300
C591        C  0.43928547  0.15114245  0.95449863     0.62000
H592        H  0.38573055  0.17575563  0.91194519     0.12700
H593        H  0.41589800  0.29129290  0.97712840     0.12700
C594        C  0.36267551  0.31650474  0.93543735     0.62300
F595        F  0.42088929  0.12175741  0.93770037    -0.22900
F596        F  0.43592022  0.14005899  0.98294573    -0.20200
F597        F  0.48090596  0.15017807  0.94707239    -0.19900
F598        F  0.32004953  0.31772196  0.93846742    -0.20000
F599        F  0.37310919  0.32966752  0.90839242    -0.20300
F600        F  0.37807606  0.34421509  0.95510322    -0.22900
C601        C  0.35295075  0.47711118  0.27514556    -0.05800
C602        C  0.35043986  0.48725914  0.30404438     0.00100
C603        C  0.31847238  0.99668225  0.31781209    -0.08400
C604        C  0.28255337  0.99497134  0.30014150    -0.05800
C605        C  0.27608256  0.48368396  0.26916657     0.00100
C606        C  0.31759831  0.47354901  0.25738796    -0.08300
C607        C  0.32754878  0.45861468  0.22666895     0.62000
H608        H  0.38408674  0.47143712  0.26665579     0.12700
H609        H  0.25285943  0.99984710  0.31038644     0.12700
C610        C  0.31480450  0.00773678  0.34940319     0.62300
F611        F  0.36971538  0.45909565  0.22044058    -0.22900
F612        F  0.30784044  0.48282806  0.20618613    -0.20200
F613        F  0.31693838  0.41828833  0.22350589    -0.19900
F614        F  0.33560179  0.04319065  0.35490221    -0.20000
F615        F  0.33251225  0.97607478  0.36570652    -0.20300
F616        F  0.27367909  0.01453331  0.35775971    -0.22900
C617        C  0.16721759  0.96993416  0.26193798    -0.05800
C618        C  0.19972549  0.99747376  0.26781599     0.00100
C619        C  0.18148738  0.53072815  0.28712714    -0.08400
C620        C  0.14220116  0.53233303  0.30117554    -0.05800
C621        C  0.11646833  0.00559874  0.29308308     0.00100
C622        C  0.12578907  0.97589124  0.27138685    -0.08300
C623        C  0.09422910  0.95041532  0.25573573     0.62000
H624        H  0.17200518  0.94440669  0.24725733     0.12700
H625        H  0.13650060  0.55429078  0.31857398     0.12700
C626        C  0.20838801  0.56620135  0.29569152     0.62300
F627        F  0.10481433  0.90901698  0.25916821    -0.22900
F628        F  0.09518200  0.95890240  0.22673410    -0.20200
F629        F  0.04786657  0.45665597  0.26137063    -0.17100
F630        F  0.25115982  0.06900573  0.28139075    -0.20000
F631        F  0.21444488  0.56621501  0.32513693    -0.20300
F632        F  0.18756859  0.60286341  0.28823848    -0.22900
C633        C  0.28062828  0.05352228  0.22864767    -0.05800
C634        C  0.24439586  0.02954552  0.22888370     0.00100
C635        C  0.21054715  0.04581488  0.21055535    -0.08400
C636        C  0.21425229  0.08417120  0.19638270    -0.05800
C637        C  0.25038067  0.10670880  0.19695136     0.00100
C638        C  0.28522519  0.08936365  0.21225117    -0.08300
C639        C  0.32781395  0.10823584  0.21189086     0.62000
H640        H  0.30639882  0.04572483  0.24251116     0.12700
H641        H  0.18764549  0.09773296  0.18489026     0.12700
C642        C  0.16777642  0.02778733  0.20685528     0.62300
F643        F  0.35858186  0.08317225  0.22474133    -0.22900
F644        F  0.32601361  0.14545285  0.22655767    -0.20200
F645        F  0.34000066  0.11399483  0.18382855    -0.19900
F646        F  0.14229348  0.04078222  0.22928208    -0.20000
F647        F  0.17007475  0.98566806  0.20485494    -0.20300
F648        F  0.14837255  0.04105506  0.18170547    -0.22900
C649        C  0.23595110  0.44154117  0.20452226    -0.05800
C650        C  0.23389768  0.44486785  0.23473777     0.00100
C651        C  0.23383694  0.40617545  0.25024248    -0.08400
C652        C  0.23912471  0.36841666  0.23496531    -0.05800
C653        C  0.24245208  0.36600256  0.20518713     0.00100
C654        C  0.24029352  0.40361277  0.18948499    -0.08300
C655        C  0.24500248  0.40480545  0.15692910     0.62000
H656        H  0.23622635  0.46939053  0.19229063     0.12700
H657        H  0.24157790  0.33971213  0.24658440     0.12700
C658        C  0.23312879  0.40128293  0.28290424     0.62300
F659        F  0.24598634  0.44456406  0.14669769    -0.22900
F660        F  0.21158906  0.38682540  0.14378710    -0.20200
F661        F  0.28199401  0.38427388  0.14889645    -0.19900
F662        F  0.21576049  0.36469391  0.29024169    -0.20000
F663        F  0.20965423  0.43154025  0.29692211    -0.20300
F664        F  0.27354969  0.40019885  0.29342141    -0.22900
C665        C  0.23448089  0.48898463  0.24982710    -0.02500
C666        C  0.45707360  0.70561721  0.01249539     0.02300
C667        C  0.46479830  0.69255625  0.98371493     0.02200
C668        C  0.00320633  0.69954972  0.97403739    -0.18300
C669        C  0.03860108  0.70651508  0.99066700     0.02300
C670        C  0.03230199  0.71409967  0.02046481     0.02200
C671        C  0.99170714  0.72089357  0.03099391    -0.18300
H672        H  0.98765353  0.72980935  0.05333381     0.04300
H673        H  0.00713495  0.69336340  0.95121033     0.04300
C674        C  0.23170812  0.48433390  0.75107127    -0.02500
C675        C  0.00748281  0.77124921  0.75259950    -0.02500
C676        C  0.24594809  0.94098873  0.01516709     0.02300
C677        C  0.24759253  0.93750313  0.98514254     0.02200
C678        C  0.19695869  0.47859656  0.97185455    -0.18300
C679        C  0.20254611  0.51546665  0.98677320     0.02300
C680        C  0.21104981  0.51392482  0.01683169     0.02200
C681        C  0.21378255  0.47559127  0.03041105    -0.18300
H682        H  0.22077242  0.47439985  0.05319732     0.04300
H683        H  0.19095100  0.47945851  0.94897136     0.04300
O684        O  0.33379705  0.76053300  0.88731981    -0.80100
O685        O  0.20119499  0.66033500  0.83139381    -0.80200
O686        O  0.26069859  0.67741675  0.92556722    -0.80200
O687        O  0.32983534  0.71216854  0.81412012    -0.80100
O688        O  0.23386366  0.65242449  0.88567538    -0.80200
O689        O  0.33762347  0.77520547  0.83012620    -0.80200
O690        O  0.26613342  0.65895517  0.81730398    -0.80100
O691        O  0.32072147  0.69508524  0.88719433    -0.80200
C692        C  0.34483316  0.72351755  0.89342173     1.09500
C693        C  0.23199662  0.64144740  0.81917731     1.09400
C694        C  0.24514718  0.64782482  0.91239022     1.09600
C695        C  0.35225776  0.74286133  0.81724240     1.09400
O696        O  0.25381034  0.81538221  0.83312995    -0.80100
O697        O  0.15718497  0.68814955  0.88008451    -0.80200
O698        O  0.27292802  0.75681924  0.91935371    -0.80200
O699        O  0.20557511  0.72544676  0.79938565    -0.80100
O700        O  0.17580829  0.74641086  0.83971790    -0.80200
O701        O  0.24998365  0.80215123  0.88877859    -0.80200
O702        O  0.27157512  0.77876585  0.79499159    -0.80100
O703        O  0.19954887  0.72704653  0.90471707    -0.80200
Co704      Co  0.29117002  0.78518564  0.85949592     1.51500
Co705      Co  0.20765112  0.70370745  0.86246165     1.51700
Co706      Co  0.26108613  0.70985209  0.89254073     1.51600
Co707      Co  0.26792957  0.71900015  0.80944863     1.51500
O708        O  0.26053091  0.73242620  0.85234884    -1.42100
C709        C  0.26036377  0.81336440  0.80669305     1.09500
C710        C  0.16462005  0.70901963  0.90254905     1.09600
C711        C  0.25881857  0.79285689  0.91415282     1.09500
C712        C  0.17456775  0.74323920  0.81249731     1.09500
O713        O  0.33931193  0.78844049  0.17070450    -0.80100
O714        O  0.24055279  0.65729992  0.11755903    -0.80200
O715        O  0.27565075  0.67123322  0.18870951    -0.80200
O716        O  0.31786603  0.70051323  0.11177464    -0.80100
O717        O  0.21194658  0.66532590  0.17365139    -0.80200
O718        O  0.33471158  0.76500112  0.11355012    -0.80200
O719        O  0.25293965  0.68573514  0.07594649    -0.80100
O720        O  0.33462877  0.72820679  0.19054389    -0.80200
C721        C  0.35574943  0.75898131  0.18510793     1.09500
C722        C  0.24466235  0.65414194  0.08982885     1.09400
C723        C  0.24411494  0.64990460  0.18652660     1.09600
C724        C  0.34208695  0.72786768  0.10481550     1.09400
O725        O  0.24843337  0.80676018  0.11462010    -0.80100
O726        O  0.18049245  0.74969372  0.16407572    -0.80200
O727        O  0.27233596  0.79291828  0.20693742    -0.80200
O728        O  0.19641514  0.73581646  0.10271839    -0.80100
O729        O  0.16340489  0.68888048  0.12608339    -0.80200
O730        O  0.25316416  0.82187581  0.16704830    -0.80200
O731        O  0.27139449  0.76529042  0.08243976    -0.80100
O732        O  0.21081727  0.73420478  0.20499612    -0.80200
Co733      Co  0.29220963  0.79229636  0.14195194     1.51500
Co734      Co  0.21376059  0.70736425  0.14184238     1.51700
Co735      Co  0.27281531  0.73159807  0.19465112     1.51600
Co736      Co  0.25894593  0.71815385  0.10963346     1.51500
O737        O  0.26511270  0.73928981  0.15082020    -1.42100
C738        C  0.25965288  0.80151364  0.08951718     1.09500
C739        C  0.17855119  0.74769408  0.19108589     1.09600
C740        C  0.25896343  0.82492066  0.19329166     1.09500
C741        C  0.16407597  0.71402769  0.10543562     1.09500
O742        O  0.06912292  0.51432307  0.65765464    -0.80100
O743        O  0.50604445  0.94531270  0.61354309    -0.80200
O744        O  0.98894493  0.97122292  0.70853305    -0.80200
O745        O  0.03922098  0.02873303  0.59524858    -0.80100
O746        O  0.50997758  0.93308858  0.67019167    -0.80200
O747        O  0.07708060  0.57031308  0.61431031    -0.80200
O748        O  0.96961936  0.99381083  0.58487485    -0.80100
O749        O  0.04817179  0.03014875  0.70047675    -0.80200
C750        C  0.07262708  0.51864430  0.68464227     1.09500
C751        C  0.49526767  0.95395028  0.58819073     1.09400
C752        C  0.50406668  0.93486378  0.69673348     1.09600
C753        C  0.06848176  0.54710418  0.59314253     1.09400
O754        O  0.99701420  0.60114458  0.61464070    -0.80100
O755        O  0.42213510  0.96191139  0.67643777    -0.80200
O756        O  0.47740613  0.58927022  0.68694726    -0.80200
O757        O  0.41697280  0.54733644  0.62016576    -0.80100
O758        O  0.41922209  0.97565945  0.61855805    -0.80200
O759        O  0.03651244  0.59829353  0.66702942    -0.80200
O760        O  0.46994989  0.57291810  0.57914029    -0.80100
O761        O  0.41903969  0.52963751  0.69115364    -0.80200
Co762      Co  0.03078604  0.55306336  0.63630219     1.51500
Co763      Co  0.46652695  0.95726316  0.64495874     1.51700
Co764      Co  0.97855737  0.53270128  0.69210494     1.51600
Co765      Co  0.97365123  0.54102725  0.60924689     1.51500
O766        O  0.98276339  0.51953580  0.64923096    -1.42100
C767        C  0.98169054  0.60552097  0.58895431     1.09500
C768        C  0.40491744  0.99330473  0.68917129     1.09600
C769        C  0.00632145  0.61380903  0.68212674     1.09500
C770        C  0.40355277  0.01090845  0.61159495     1.09500
O771        O  0.03532943  0.59292027  0.32702394    -0.80100
O772        O  0.42436861  0.97664990  0.39081796    -0.80200
O773        O  0.41042063  0.52445974  0.31407075    -0.80200
O774        O  0.49859728  0.56566132  0.42115541    -0.80100
O775        O  0.41587318  0.96216839  0.33317743    -0.80200
O776        O  0.00656005  0.59944261  0.38131061    -0.80200
O777        O  0.43180371  0.54423179  0.39654431    -0.80100
O778        O  0.46911092  0.58349732  0.31277875    -0.80200
C779        C  0.00307785  0.60811916  0.31429517     1.09500
C780        C  0.41456346  0.01110904  0.40299813     1.09400
C781        C  0.39807163  0.99296050  0.32066377     1.09600
C782        C  0.00395726  0.60097648  0.40871269     1.09400
O783        O  0.08540840  0.56846621  0.37451738    -0.80100
O784        O  0.50330939  0.93062079  0.33190040    -0.80200
O785        O  0.04262738  0.02553842  0.29413867    -0.80200
O786        O  0.98433583  0.98598708  0.41924077    -0.80100
O787        O  0.51280017  0.94354515  0.38590217    -0.80200
O788        O  0.06818915  0.51070715  0.33440572    -0.80200
O789        O  0.05699926  0.02060834  0.39975985    -0.80100
O790        O  0.97672812  0.97023796  0.29163344    -0.80200
Co791      Co  0.03479716  0.55069457  0.35822109     1.51500
Co792      Co  0.46580806  0.95745889  0.35984060     1.51700
Co793      Co  0.98092663  0.03129865  0.30508994     1.51600
Co794      Co  0.99384232  0.02998611  0.39245502     1.51500
O795        O  0.98843239  0.02364100  0.34888785    -1.42100
C796        C  0.08737427  0.54124042  0.39397681     1.09500
C797        C  0.49376820  0.92980860  0.30597366     1.09600
C798        C  0.06780155  0.51466306  0.30734621     1.09500
C799        C  0.50577591  0.94480887  0.41223520     1.09500
C800        C  0.51669358  0.81374394  0.51429927     0.02300
C801        C  0.53030568  0.80811650  0.48585996     0.02200
C802        C  0.53216501  0.76850886  0.47384076    -0.18300
C803        C  0.51678558  0.73511299  0.48831727     0.02300
C804        C  0.50165521  0.74117066  0.51678875     0.02200
C805        C  0.50189183  0.78056016  0.52915298    -0.18300
H806        H  0.49145626  0.78526103  0.55112409     0.04300
H807        H  0.54189963  0.76444305  0.45165958     0.04300
C808        C  0.27902967  0.52585653  0.51965163     0.02300
C809        C  0.28438675  0.52091903  0.48966891     0.02200
C810        C  0.25170449  0.00887495  0.47234327    -0.18300
C811        C  0.20884529  0.52403132  0.48335332     0.02300
C812        C  0.20325289  0.52406336  0.51355641     0.02200
C813        C  0.23864273  0.52852503  0.53082954    -0.18300
H814        H  0.23493072  0.53233815  0.55384926     0.04300
H815        H  0.25513002  0.00586803  0.44920616     0.04300
C816        C  0.51317873  0.76192413  0.25134188    -0.02500
C817        C  0.46405640  0.86788053  0.28309479    -0.05800
C818        C  0.49974159  0.88929378  0.29025152     0.00100
C819        C  0.03568622  0.87179956  0.29159422    -0.08400
C820        C  0.03974706  0.83425404  0.27622545    -0.05800
C821        C  0.50597218  0.80563895  0.26700731     0.00100
C822        C  0.46601544  0.82571932  0.27442377    -0.08300
C823        C  0.42437737  0.80516992  0.27565212     0.62000
H824        H  0.43377994  0.88310859  0.28720026     0.12700
H825        H  0.07075070  0.82078237  0.27448884     0.12700
C826        C  0.06890153  0.88064797  0.31413081     0.62300
F827        F  0.39670319  0.82340544  0.25624361    -0.22900
F828        F  0.40746527  0.81125442  0.30268291    -0.20200
F829        F  0.42730356  0.76337351  0.27039904    -0.19900
F830        F  0.05324584  0.87263365  0.34097111    -0.20000
F831        F  0.07985720  0.92100135  0.31362588    -0.20300
F832        F  0.10494497  0.85596329  0.31044449    -0.22900
C833        C  0.02877979  0.69121773  0.26111906    -0.05800
C834        C  0.00937113  0.72842093  0.27198050     0.00100
C835        C  0.49430282  0.71922675  0.30140871    -0.08400
C836        C  0.48771897  0.67944245  0.31249751    -0.05800
C837        C  0.00468254  0.64842462  0.29927348     0.00100
C838        C  0.02783940  0.65244566  0.27412431    -0.08300
C839        C  0.05122781  0.61547154  0.26058040     0.62000
H840        H  0.04769228  0.69236135  0.24245226     0.12700
H841        H  0.47380532  0.67653573  0.33351991     0.12700
C842        C  0.48977743  0.75178841  0.32535244     0.62300
F843        F  0.07087139  0.62508363  0.23532539    -0.22900
F844        F  0.02351031  0.58539588  0.25436461    -0.20200
F845        F  0.08152611  0.60030557  0.27937430    -0.19900
F846        F  0.44834916  0.75688184  0.33312260    -0.20000
F847        F  0.50488504  0.78933481  0.31989871    -0.20300
F848        F  0.51215316  0.73775779  0.34916728    -0.22900
C849        C  0.48120049  0.70022117  0.44859930    -0.05800
C850        C  0.00621214  0.70322046  0.46845900     0.00100
C851        C  0.03824684  0.67185265  0.46858660    -0.08400
C852        C  0.03556177  0.63876253  0.44889924    -0.05800
C853        C  0.00487603  0.63860004  0.42698013     0.00100
C854        C  0.47860583  0.67024603  0.42673731    -0.08300
C855        C  0.44581946  0.67831892  0.40366622     0.62000
H856        H  0.46010763  0.72731066  0.44784695     0.12700
H857        H  0.05885451  0.61350738  0.44951153     0.12700
C858        C  0.07741501  0.67583342  0.48670248     0.62300
F859        F  0.40725017  0.68576827  0.41626465    -0.22900
F860        F  0.44256359  0.64630679  0.38428249    -0.20200
F861        F  0.45576065  0.71289806  0.38878153    -0.19900
F862        F  0.10347659  0.64090724  0.48488913    -0.20000
F863        F  0.06785743  0.68210290  0.51517453    -0.20300
F864        F  0.09889214  0.70887078  0.47722146    -0.22900
C865        C  0.03286837  0.91973332  0.45083070    -0.05800
C866        C  0.51419610  0.90939154  0.42982556     0.00100
C867        C  0.49376568  0.87283305  0.42432488    -0.08400
C868        C  0.49995274  0.84107337  0.44371937    -0.05800
C869        C  0.52982234  0.84275266  0.46579694     0.00100
C870        C  0.04240911  0.88531742  0.46775625    -0.08300
C871        C  0.08085460  0.88656197  0.48668491     0.62000
H872        H  0.05004949  0.94737127  0.45393759     0.12700
H873        H  0.48158504  0.81416258  0.44157895     0.12700
C874        C  0.46615949  0.86681623  0.39806435     0.62300
F875        F  0.11430907  0.89743547  0.47027845    -0.22900
F876        F  0.09137641  0.84890150  0.49873602    -0.20200
F877        F  0.07449841  0.91576453  0.50821522    -0.19900
F878        F  0.48997681  0.86851985  0.37352480    -0.20000
F879        F  0.43428122  0.89683617  0.39709125    -0.20300
F880        F  0.44821025  0.82902710  0.39809114    -0.22900
C881        C  0.13718269  0.57170845  0.42700592    -0.05800
C882        C  0.12327737  0.53635463  0.41340222     0.00100
C883        C  0.13902504  0.49696392  0.42214579    -0.08400
C884        C  0.16310705  0.49404865  0.44733177    -0.05800
C885        C  0.17549539  0.52936268  0.46178076     0.00100
C886        C  0.16535505  0.56876915  0.45010707    -0.08300
C887        C  0.18634790  0.60703775  0.46071831     0.62000
H888        H  0.12599971  0.60158908  0.41928683     0.12700
H889        H  0.17482500  0.46425573  0.45489780     0.12700
C890        C  0.13433608  0.45897825  0.40335553     0.62300
F891        F  0.16919974  0.64241927  0.44814154    -0.22900
F892        F  0.22823143  0.60389968  0.45382568    -0.20200
F893        F  0.19270899  0.10326617  0.49021827    -0.19900
F894        F  0.14483769  0.46768255  0.37538245    -0.20000
F895        F  0.08926539  0.94630153  0.40420769    -0.20300
F896        F  0.15316786  0.91993854  0.41402736    -0.22900
C897        C  0.37450162  0.97560915  0.43975012    -0.05800
C898        C  0.38282734  0.01295609  0.42634643     0.00100
C899        C  0.36424538  0.05017434  0.43777548    -0.08400
C900        C  0.33618674  0.04810185  0.46069806    -0.05800
C901        C  0.32714543  0.01077634  0.47339814     0.00100
C902        C  0.34714735  0.97390155  0.46313960    -0.08300
C903        C  0.33908718  0.93287068  0.47666852     0.62000
H904        H  0.38992833  0.94738960  0.43195765     0.12700
H905        H  0.32336723  0.58407238  0.47127365     0.12700
C906        C  0.37452834  0.59798185  0.42715686     0.62300
F907        F  0.29746525  0.92445912  0.47370645    -0.22900
F908        F  0.34927203  0.93434270  0.50548128    -0.20200
F909        F  0.34624310  0.40698311  0.45922997    -0.19900
F910        F  0.34883708  0.12337400  0.43873918    -0.20000
F911        F  0.36670252  0.60045965  0.39796528    -0.20300
F912        F  0.41622286  0.60284828  0.43278009    -0.22900
C913        C  0.13263750  0.04348825  0.52335296    -0.05800
C914        C  0.16288933  0.51983474  0.52900636     0.00100
C915        C  0.16145855  0.49660455  0.55470901    -0.08400
C916        C  0.13128744  0.50791101  0.57536215    -0.05800
C917        C  0.09900814  0.53712729  0.56974771     0.00100
C918        C  0.09421393  0.55123472  0.54100992    -0.08300
C919        C  0.06099050  0.07519673  0.53283583     0.62000
H920        H  0.13237674  0.05953672  0.50324498     0.12700
H921        H  0.13180122  0.49213405  0.59561216     0.12700
C922        C  0.19066722  0.45962626  0.56119550     0.62300
F923        F  0.05421968  0.57561837  0.50043264    -0.22900
F924        F  0.04949996  0.61079041  0.54170379    -0.20200
F925        F  0.02650212  0.05340662  0.53891293    -0.19900
F926        F  0.21654050  0.46880755  0.58399313    -0.20000
F927        F  0.21291348  0.94055445  0.53760810    -0.20300
F928        F  0.16732784  0.42678081  0.56869447    -0.22900
C929        C  0.36552629  0.04920492  0.57272093    -0.05800
C930        C  0.36937750  0.01356181  0.58970300     0.00100
C931        C  0.34492594  0.97961277  0.58233614    -0.08400
C932        C  0.32030903  0.98174211  0.55739099    -0.05800
C933        C  0.31704351  0.01702385  0.54040754     0.00100
C934        C  0.33834581  0.05219990  0.54894189    -0.08300
C935        C  0.33372097  0.09333555  0.53392057     0.62000
H936        H  0.38391385  0.07530616  0.57802884     0.12700
H937        H  0.29840093  0.46231148  0.55063815     0.12700
C938        C  0.34408205  0.94102726  0.60030953     0.62300
F939        F  0.31847501  0.63121357  0.55940019    -0.22900
F940        F  0.29289780  0.60498491  0.51900093    -0.20200
F941        F  0.36856527  0.09812803  0.51724090    -0.19900
F942        F  0.33184768  0.45807896  0.62984513    -0.20000
F943        F  0.37962301  0.91618208  0.59540493    -0.20300
F944        F  0.30976048  0.91836460  0.59384430    -0.22900
C945        C  0.45617372  0.65055983  0.55517815    -0.05800
C946        C  0.98167839  0.64551946  0.57330824     0.00100
C947        C  0.01269171  0.67525016  0.57713107    -0.08400
C948        C  0.01311611  0.70799720  0.55781528    -0.05800
C949        C  0.98582253  0.71171376  0.53427080     0.00100
C950        C  0.45855452  0.68262432  0.53532545    -0.08300
C951        C  0.42303199  0.68868713  0.51394626     0.62000
H952        H  0.43048874  0.63027558  0.55325613     0.12700
H953        H  0.03732346  0.72992737  0.55959934     0.12700
C954        C  0.04940897  0.67091301  0.59802617     0.62300
F955        F  0.38555512  0.69128238  0.52854177    -0.22900
F956        F  0.42324018  0.65532053  0.49529205    -0.20200
F957        F  0.42523383  0.72420666  0.49819732    -0.19900
F958        F  0.07703236  0.63989445  0.58884022    -0.20000
F959        F  0.03645603  0.66269475  0.62522287    -0.20300
F960        F  0.07124985  0.70652244  0.59997741    -0.22900
C961        C  0.48915635  0.88526706  0.52173705    -0.05800
C962        C  0.51777604  0.85339920  0.52971442     0.00100
C963        C  0.03250340  0.86222111  0.55355797    -0.08400
C964        C  0.02697000  0.89683704  0.57126448    -0.05800
C965        C  0.50548520  0.92359515  0.56501619     0.00100
C966        C  0.48326776  0.92117700  0.53857360    -0.08300
C967        C  0.45229536  0.95479454  0.52845085     0.62000
H968        H  0.47008250  0.88090498  0.50279229     0.12700
H969        H  0.04564481  0.89808649  0.59071588     0.12700
C970        C  0.06625076  0.83032991  0.56260792     0.62300
F971        F  0.43685711  0.94659588  0.50127847    -0.22900
F972        F  0.47142946  0.99180279  0.52722090    -0.20200
F973        F  0.41905475  0.95832526  0.54706707    -0.19900
F974        F  0.10339509  0.84953932  0.56666435    -0.20000
F975        F  0.07359504  0.79907633  0.54272561    -0.20300
F976        F  0.05498706  0.81312550  0.58827507    -0.22900
C977        C  0.13418848  0.74569661  0.23526405    -0.05800
C978        C  0.13758891  0.75783901  0.20659096     0.00100
C979        C  0.10197983  0.77876567  0.19405601    -0.08400
C980        C  0.06407186  0.78274430  0.20965438    -0.05800
C981        C  0.05893215  0.76720181  0.23771832     0.00100
C982        C  0.09732703  0.75229008  0.25164599    -0.08300
C983        C  0.10392293  0.74390351  0.28363078     0.62000
H984        H  0.16154449  0.73148102  0.24562821     0.12700
H985        H  0.03771774  0.79778478  0.19917011     0.12700
C986        C  0.10309194  0.79696425  0.16414903     0.62300
F987        F  0.11119464  0.70210885  0.28777710    -0.22900
F988        F  0.07154553  0.75785967  0.30087166    -0.20200
F989        F  0.13871605  0.76374650  0.29312329    -0.19900
F990        F  0.10593836  0.76562842  0.14392404    -0.20000
F991        F  0.13685381  0.82154909  0.16180385    -0.20300
F992        F  0.06749825  0.82118840  0.15797607    -0.22900
C993        C  0.42151457  0.72385916  0.20390697    -0.05800
C994        C  0.39977922  0.76089282  0.19663270     0.00100
C995        C  0.42164084  0.79783420  0.19956835    -0.08400
C996        C  0.46070173  0.79641148  0.21405811    -0.05800
C997        C  0.47984290  0.75956911  0.22525138     0.00100
C998        C  0.46363801  0.72288501  0.21308144    -0.08300
C999        C  0.49083991  0.68992848  0.19771762     0.62000
H1000       H  0.40792139  0.69509023  0.19795390     0.12700
H1001       H  0.47558655  0.82498000  0.21802551     0.12700
C1002       C  0.40346932  0.83919226  0.18918635     0.62300
F1003       F  0.47660017  0.68445406  0.16991479    -0.22900
F1004       F  0.48871816  0.65265753  0.21142447    -0.20200
F1005       F  0.53168697  0.70081018  0.19517842    -0.19900
F1006       F  0.36548280  0.84837926  0.20221759    -0.20000
F1007       F  0.39822761  0.83790732  0.15970253    -0.20300
F1008       F  0.42923300  0.87099173  0.19554389    -0.22900
C1009       C  0.19614130  0.60579488  0.06806633    -0.05800
C1010       C  0.23757203  0.61547665  0.07363165     0.00100
C1011       C  0.27030054  0.59168105  0.06031920    -0.08400
C1012       C  0.26048625  0.55936551  0.04146308    -0.05800
C1013       C  0.21899883  0.55076605  0.03499446     0.00100
C1014       C  0.18634552  0.57316552  0.04938643    -0.08300
C1015       C  0.14163595  0.56088205  0.04636795     0.62000
H1016       H  0.17143029  0.62409627  0.07851206     0.12700
H1017       H  0.28524829  0.53998510  0.03198861     0.12700
C1018       C  0.31531072  0.59958542  0.06699334     0.62300
F1019       F  0.11438083  0.58876583  0.05984846    -0.22900
F1020       F  0.13761160  0.52286733  0.05864026    -0.20200
F1021       F  0.13025246  0.55868169  0.01783727    -0.19900
F1022       F  0.32182091  0.59530348  0.09616209    -0.20000
F1023       F  0.32380936  0.63894912  0.05880907    -0.20300
F1024       F  0.34273285  0.57224424  0.05283175    -0.22900
C1025       C  0.28868644  0.88737544  0.03964677    -0.05800
C1026       C  0.24895978  0.90493193  0.03364254     0.00100
C1027       C  0.21378987  0.89189581  0.04842159    -0.08400
C1028       C  0.21946292  0.85788186  0.06619333    -0.05800
C1029       C  0.25837138  0.83738404  0.07027713     0.00100
C1030       C  0.29426646  0.85707869  0.06063446    -0.08300
C1031       C  0.33549247  0.85661808  0.07691867     0.62000
H1032       H  0.31577836  0.90121177  0.03061534     0.12700
H1033       H  0.19322134  0.84867585  0.07900419     0.12700
C1034       C  0.17119352  0.91465757  0.04628157     0.62300
F1035       F  0.34727163  0.89661931  0.08124277    -0.22900
F1036       F  0.36664259  0.83580663  0.06156120    -0.20200
F1037       F  0.33245258  0.83980003  0.10373063    -0.19900
F1038       F  0.15806397  0.91709060  0.01802413    -0.20000
F1039       F  0.17341646  0.95397809  0.05738078    -0.20300
F1040       F  0.14111644  0.89534766  0.06161019    -0.22900
C1041       C  0.25142260  0.56445295  0.96878401    -0.05800
C1042       C  0.21038838  0.55162988  0.96857751     0.00100
C1043       C  0.18275531  0.56622314  0.94639262    -0.08400
C1044       C  0.19677491  0.59500731  0.92671810    -0.05800
C1045       C  0.23684832  0.61012750  0.92862356     0.00100
C1046       C  0.26521697  0.59328398  0.94927787    -0.08300
C1047       C  0.31092279  0.60252664  0.94894916     0.62000
H1048       H  0.27353526  0.54986457  0.98349131     0.12700
H1049       H  0.17523339  0.60758152  0.91065474     0.12700
C1050       C  0.13814553  0.55348533  0.94247261     0.62300
F1051       F  0.33442196  0.57683568  0.96700938    -0.22900
F1052       F  0.31635525  0.64258940  0.95774546    -0.20200
F1053       F  0.32562697  0.59639920  0.92133388    -0.19900
F1054       F  0.11150388  0.58823869  0.94144181    -0.20000
F1055       F  0.12477752  0.52906704  0.96428836    -0.20300
F1056       F  0.13501748  0.53215544  0.91677513    -0.22900
C1057       C  0.22660970  0.86652097  0.97413279    -0.05800
C1058       C  0.25529848  0.89727870  0.97031644     0.00100
C1059       C  0.28809347  0.89061931  0.95027474    -0.08400
C1060       C  0.28752546  0.85605284  0.93225541    -0.05800
C1061       C  0.25856923  0.82580129  0.93580283     0.00100
C1062       C  0.22823179  0.83025763  0.95750963    -0.08300
C1063       C  0.19576070  0.79862243  0.96137980     0.62000
H1064       H  0.20163884  0.87178566  0.98924994     0.12700
H1065       H  0.30991227  0.85278572  0.91498539     0.12700
C1066       C  0.32422806  0.91861481  0.94681029     0.62300
F1067       F  0.16954179  0.80831086  0.98422825    -0.22900
F1068       F  0.21511494  0.76039907  0.96633825    -0.20200
F1069       F  0.17173571  0.79693643  0.93678479    -0.19900
F1070       F  0.32716981  0.94699689  0.96891744    -0.20000
F1071       F  0.31986289  0.93924371  0.92107144    -0.20300
F1072       F  0.36135983  0.89504535  0.94639602    -0.22900
C1073       C  0.01491916  0.69380081  0.74302610    -0.05800
C1074       C  0.01029214  0.73318791  0.72962583     0.00100
C1075       C  0.00909654  0.73130200  0.69834556    -0.08400
C1076       C  0.00466297  0.69219268  0.68439801    -0.05800
C1077       C  0.00926683  0.65428023  0.69849527     0.00100
C1078       C  0.01552416  0.65546666  0.72845263    -0.08300
C1079       C  0.52579837  0.61361282  0.74695575     0.62000
H1080       H  0.52136399  0.69112907  0.76627070     0.12700
H1081       H  0.99759620  0.69088437  0.66185443     0.12700
C1082       C  0.01653060  0.76680451  0.67807830     0.62300
F1083       F  0.02959183  0.62338089  0.77422191    -0.22900
F1084       F  0.05940768  0.59569540  0.73484923    -0.20200
F1085       F  0.49250485  0.58848824  0.74402464    -0.19900
F1086       F  0.05777281  0.77663662  0.67999969    -0.20000
F1087       F  0.49340821  0.79624545  0.68267519    -0.20300
F1088       F  0.00966452  0.75633921  0.64959564    -0.22900
C1089       C  0.03994121  0.83094636  0.72541452    -0.05800
C1090       C  0.50682391  0.81576814  0.74088412     0.00100
C1091       C  0.47623730  0.84957533  0.74761771    -0.08400
C1092       C  0.47682842  0.88670423  0.73200772    -0.05800
C1093       C  0.50879032  0.89579037  0.71350048     0.00100
C1094       C  0.04080382  0.86875950  0.71049626    -0.08300
C1095       C  0.07703839  0.87667112  0.69084232     0.62000
H1096       H  0.06664039  0.81017686  0.72325862     0.12700
H1097       H  0.45163478  0.90995904  0.73473630     0.12700
C1098       C  0.44257992  0.85343673  0.77086742     0.62300
F1099       F  0.11000128  0.84808785  0.69444502    -0.22900
F1100       F  0.09140900  0.91528527  0.69641798    -0.20200
F1101       F  0.06398624  0.87457395  0.66254813    -0.19900
F1102       F  0.44583438  0.82541439  0.79246097    -0.20000
F1103       F  0.40381109  0.85192917  0.75793695    -0.20300
F1104       F  0.44443580  0.89134739  0.78461216    -0.22900
C1105       C  0.08728183  0.75133439  0.75565084    -0.05800
C1106       C  0.05109611  0.76734649  0.77075657     0.00100
C1107       C  0.06093552  0.78452311  0.79879401    -0.08400
C1108       C  0.10018270  0.77331351  0.81191735    -0.05800
C1109       C  0.13461285  0.75649992  0.79646970     0.00100
C1110       C  0.12846394  0.75156670  0.76654869    -0.08300
C1111       C  0.16308500  0.75234941  0.74440279     0.62000
H1112       H  0.08480973  0.74300725  0.73321722     0.12700
H1113       H  0.10514009  0.78057016  0.83433149     0.12700
C1114       C  0.03503755  0.81825530  0.81446696     0.62300
F1115       F  0.15080855  0.77882269  0.72251954    -0.22900
F1116       F  0.17047187  0.71371803  0.73256093    -0.20200
F1117       F  0.19971715  0.76661140  0.75544333    -0.19900
F1118       F  0.99994402  0.80347443  0.82661188    -0.20000
F1119       F  0.02470630  0.84993697  0.79603937    -0.20300
F1120       F  0.05730997  0.83560335  0.83670854    -0.22900
C1121       C  0.46882625  0.73926773  0.79519975    -0.05800
C1122       C  0.46692957  0.75805045  0.76779980     0.00100
C1123       C  0.42523858  0.76189554  0.75516283    -0.08400
C1124       C  0.38997787  0.75803801  0.77299036    -0.05800
C1125       C  0.39280482  0.74395735  0.80110887     0.00100
C1126       C  0.43295981  0.73076902  0.81141670    -0.08300
C1127       C  0.44015807  0.70593973  0.83841987     0.62000
H1128       H  0.49889888  0.73001028  0.80425235     0.12700
H1129       H  0.35879092  0.76492351  0.76476873     0.12700
C1130       C  0.41530952  0.76777744  0.72324287     0.62300
F1131       F  0.46227336  0.66958306  0.83157876    -0.22900
F1132       F  0.40343592  0.69586730  0.85109532    -0.20200
F1133       F  0.46332907  0.72779125  0.85788520    -0.19900
F1134       F  0.42958639  0.73362535  0.70789009    -0.20000
F1135       F  0.43187820  0.80242541  0.71265226    -0.20300
F1136       F  0.37280710  0.77210770  0.71782416    -0.22900
C1137       C  0.31517024  0.00652486  0.74386306    -0.05800
C1138       C  0.28285716  0.98091284  0.73350606     0.00100
C1139       C  0.29676747  0.95428345  0.70986351    -0.08400
C1140       C  0.33611760  0.95962431  0.69650540    -0.05800
C1141       C  0.36368125  0.98990202  0.70481038     0.00100
C1142       C  0.35302572  0.01324973  0.72970620    -0.08300
C1143       C  0.38235004  0.04407316  0.74270368     0.62000
H1144       H  0.31232134  0.02103894  0.76456985     0.12700
H1145       H  0.34597269  0.93868494  0.67940438     0.12700
C1146       C  0.27463885  0.91780100  0.69769554     0.62300
F1147       F  0.35261868  0.57834460  0.76147567    -0.22900
F1148       F  0.37482524  0.58572263  0.71674431    -0.20200
F1149       F  0.42140908  0.02519239  0.74727690    -0.19900
F1150       F  0.26335356  0.43080487  0.66639484    -0.20000
F1151       F  0.23686241  0.91229156  0.70974913    -0.20300
F1152       F  0.29935905  0.88227335  0.70197900    -0.22900
C1153       C  0.18997957  0.49915408  0.70397169    -0.05800
C1154       C  0.18910567  0.49363317  0.73404443     0.00100
C1155       C  0.14870432  0.50218036  0.74751647    -0.08400
C1156       C  0.11290555  0.50946729  0.73016065    -0.05800
C1157       C  0.11384826  0.50994033  0.70014077     0.00100
C1158       C  0.15365704  0.50514378  0.68685002    -0.08300
C1159       C  0.15847379  0.50544543  0.65463708     0.62000
H1160       H  0.21957421  0.49827110  0.69332948     0.12700
H1161       H  0.08302891  0.51535389  0.74042491     0.12700
C1162       C  0.14074598  0.50695015  0.77982814     0.62300
F1163       F  0.19972980  0.50093030  0.64607143    -0.22900
F1164       F  0.14239769  0.54239460  0.64400255    -0.20200
F1165       F  0.13890410  0.96258497  0.64544276    -0.19900
F1166       F  0.14692189  0.54689910  0.78852169    -0.20000
F1167       F  0.17226242  0.98148083  0.79631398    -0.20300
F1168       F  0.10805661  0.00427169  0.78720462    -0.22900
C1169       C  0.23745517  0.56383123  0.81865129    -0.05800
C1170       C  0.22786595  0.60079759  0.80429666     0.00100
C1171       C  0.21955758  0.59912371  0.77478044    -0.08400
C1172       C  0.22336368  0.56127133  0.76023546    -0.05800
C1173       C  0.23131377  0.52227161  0.77374895     0.00100
C1174       C  0.23909165  0.52433254  0.80461745    -0.08300
C1175       C  0.25356317  0.48834832  0.82370422     0.62000
H1176       H  0.24524615  0.56667218  0.84120320     0.12700
H1177       H  0.22040029  0.56210082  0.73713296     0.12700
C1178       C  0.20557361  0.63758427  0.75865319     0.62300
F1179       F  0.25089997  0.49868384  0.85258695    -0.22900
F1180       F  0.29499494  0.47789090  0.81834563    -0.20200
F1181       F  0.22967628  0.45466635  0.82019449    -0.19900
F1182       F  0.23677865  0.66540251  0.75933590    -0.20000
F1183       F  0.17002673  0.65485795  0.77155370    -0.20300
F1184       F  0.19602795  0.62937842  0.73019667    -0.22900
C1185       C  0.27854391  0.92131425  0.77859050    -0.05800
C1186       C  0.23957483  0.93476659  0.76624241     0.00100
C1187       C  0.20829229  0.90277376  0.76492042    -0.08400
C1188       C  0.21797899  0.86385817  0.77782235    -0.05800
C1189       C  0.25615349  0.85294801  0.79041871     0.00100
C1190       C  0.28663356  0.88264049  0.79156838    -0.08300
C1191       C  0.32758239  0.87379303  0.80727031     0.62000
H1192       H  0.30367485  0.94198334  0.77840669     0.12700
H1193       H  0.19478929  0.84094605  0.77927804     0.12700
C1194       C  0.16435777  0.90473553  0.75096767     0.62300
F1195       F  0.35437308  0.90565849  0.80506310    -0.22900
F1196       F  0.34719944  0.83880023  0.79581173    -0.20200
F1197       F  0.32008002  0.86778355  0.83608828    -0.19900
F1198       F  0.16392206  0.91985651  0.72362580    -0.20000
F1199       F  0.13624091  0.92684152  0.76792976    -0.20300
F1200       F  0.14833337  0.86613215  0.74788299    -0.22900
C1201       C  0.10056949  0.68554299  0.08473188    -0.05800
C1202       C  0.12886983  0.71692563  0.08442008     0.00100
C1203       C  0.12345988  0.74837472  0.06353203    -0.08400
C1204       C  0.09264772  0.74539289  0.04230682    -0.05800
C1205       C  0.06577462  0.71326072  0.04214139     0.00100
C1206       C  0.06847420  0.68347499  0.06438922    -0.08300
C1207       C  0.03582230  0.65196612  0.06889542     0.62000
H1208       H  0.10330362  0.66255849  0.10136373     0.12700
H1209       H  0.08874108  0.76854026  0.02581473     0.12700
C1210       C  0.14844473  0.78598778  0.06418657     0.62300
F1211       F  0.05047741  0.61978772  0.08598252    -0.22900
F1212       F  0.02277332  0.63542499  0.04309652    -0.20200
F1213       F  0.00250882  0.67111657  0.08298906    -0.19900
F1214       F  0.18871997  0.77531256  0.05566887    -0.20000
F1215       F  0.14749774  0.80199560  0.09183905    -0.20300
F1216       F  0.13240634  0.81611071  0.04584419    -0.22900
C1217       C  0.36412000  0.74406630  0.05578502    -0.05800
C1218       C  0.37039887  0.71910092  0.07999574     0.00100
C1219       C  0.39725631  0.68340265  0.07751686    -0.08400
C1220       C  0.41754614  0.67505897  0.05106889    -0.05800
C1221       C  0.41674994  0.70396623  0.02861113     0.00100
C1222       C  0.38751252  0.73804789  0.03046633    -0.08300
C1223       C  0.37984310  0.76738122  0.00577359     0.62000
H1224       H  0.34022353  0.76852286  0.05678025     0.12700
H1225       H  0.43924239  0.64861404  0.04918640     0.12700
C1226       C  0.40913379  0.65749586  0.10353660     0.62300
F1227       F  0.35030824  0.79852050  0.01219954    -0.22900
F1228       F  0.36476376  0.74591861  0.98255219    -0.20200
F1229       F  0.41642366  0.78547569  0.99880708    -0.19900
F1230       F  0.43422968  0.62316923  0.09624455    -0.20000
F1231       F  0.37455729  0.64384382  0.11717185    -0.20300
F1232       F  0.43074392  0.68133924  0.12261289    -0.22900
C1233       C  0.07257732  0.74078451  0.95055260    -0.05800
C1234       C  0.07770350  0.71285033  0.97362129     0.00100
C1235       C  0.11406321  0.68590772  0.97386468    -0.08400
C1236       C  0.14283992  0.68786078  0.95105477    -0.05800
C1237       C  0.13453719  0.71211316  0.92671894     0.00100
C1238       C  0.09857541  0.73869328  0.92624831    -0.08300
C1239       C  0.08653920  0.76272034  0.89946457     0.62000
H1240       H  0.04491040  0.76130229  0.95024627     0.12700
H1241       H  0.17152998  0.66900050  0.95153296     0.12700
C1242       C  0.12258051  0.65409227  0.99698278     0.62300
F1243       F  0.05045914  0.78724815  0.90330416    -0.22900
F1244       F  0.07964648  0.73542132  0.87717728    -0.20200
F1245       F  0.11823600  0.78771243  0.89195774    -0.19900
F1246       F  0.08688814  0.63373365  0.00289931    -0.20000
F1247       F  0.13712589  0.67272949  0.02147102    -0.20300
F1248       F  0.15302829  0.62504428  0.98866111    -0.22900
C1249       C  0.38900589  0.67412645  0.92259926    -0.05800
C1250       C  0.38205270  0.71450594  0.91220966     0.00100
C1251       C  0.40813024  0.74556292  0.92264754    -0.08400
C1252       C  0.43374015  0.73668159  0.94649282    -0.05800
C1253       C  0.43436136  0.69840824  0.96010343     0.00100
C1254       C  0.41563635  0.66540361  0.94617475    -0.08300
C1255       C  0.42485400  0.62152254  0.95591233     0.62000
H1256       H  0.37282768  0.64955697  0.91249044     0.12700
H1257       H  0.45336600  0.76001543  0.95513925     0.12700
C1258       C  0.40884139  0.78831643  0.90989489     0.62300
F1259       F  0.40572295  0.59339891  0.93847682    -0.22900
F1260       F  0.41117557  0.61728320  0.98376714    -0.20200
F1261       F  0.46732040  0.61204187  0.95493134    -0.19900
F1262       F  0.37431770  0.81162314  0.91904830    -0.20000
F1263       F  0.40910763  0.78614463  0.88023763    -0.20300
F1264       F  0.44397929  0.80840307  0.91843142    -0.22900
C1265       C  0.36073686  0.97704237  0.27687798    -0.05800
C1266       C  0.35790594  0.98843675  0.30554255     0.00100
C1267       C  0.31092856  0.49156216  0.31700862    -0.08400
C1268       C  0.27465758  0.48935547  0.29954636    -0.05800
C1269       C  0.28436840  0.98735457  0.26996766     0.00100
C1270       C  0.32579519  0.97580234  0.25857361    -0.08300
C1271       C  0.33607549  0.96037342  0.22798196     0.62000
H1272       H  0.39176006  0.96891413  0.26891683     0.12700
H1273       H  0.24498050  0.49267411  0.31003258     0.12700
C1274       C  0.30745815  0.49879849  0.34912542     0.62300
F1275       F  0.37814037  0.96215867  0.22176169    -0.22900
F1276       F  0.31559164  0.98325015  0.20712936    -0.20200
F1277       F  0.32676178  0.91961485  0.22531594    -0.19900
F1278       F  0.32701076  0.53429110  0.35669552    -0.20000
F1279       F  0.32652686  0.46583607  0.36344625    -0.20300
F1280       F  0.26632431  0.50303052  0.35795526    -0.22900
C1281       C  0.15635665  0.47400688  0.25893723    -0.05800
C1282       C  0.19132069  0.49773513  0.26671612     0.00100
C1283       C  0.18757487  0.03154552  0.28670694    -0.08400
C1284       C  0.14818469  0.03204778  0.30067675    -0.05800
C1285       C  0.10849005  0.51000099  0.29149577     0.00100
C1286       C  0.11490649  0.48483626  0.26710065    -0.08300
C1287       C  0.07913168  0.47463613  0.24703150     0.62000
H1288       H  0.15985336  0.44886048  0.24387579     0.12700
H1289       H  0.14093567  0.05570014  0.31670682     0.12700
C1290       C  0.21225643  0.06942347  0.29331449     0.62300
F1291       F  0.09208161  0.44834159  0.22491339    -0.22900
F1292       F  0.06250312  0.51052274  0.23501967    -0.20200
F1293       F  0.05402595  0.95839643  0.26478674    -0.17100
F1294       F  0.24682324  0.56551778  0.28316972    -0.20000
F1295       F  0.21719741  0.07353762  0.32272452    -0.20300
F1296       F  0.19006104  0.10394517  0.28330102    -0.22900
C1297       C  0.27352143  0.55243330  0.23028006    -0.05800
C1298       C  0.23754793  0.52821143  0.22856865     0.00100
C1299       C  0.20518087  0.54502455  0.20923207    -0.08400
C1300       C  0.20923616  0.58439037  0.19675816    -0.05800
C1301       C  0.24463981  0.60743816  0.19971970     0.00100
C1302       C  0.27854087  0.58978583  0.21584590    -0.08300
C1303       C  0.32017120  0.61029070  0.21907728     0.62000
H1304       H  0.29831880  0.54409223  0.24472879     0.12700
H1305       H  0.18340039  0.59824995  0.18460576     0.12700
C1306       C  0.16287733  0.52752287  0.20295590     0.62300
F1307       F  0.34972331  0.58617414  0.23389681    -0.22900
F1308       F  0.31449064  0.64705953  0.23406586    -0.20200
F1309       F  0.33661032  0.61725851  0.19227121    -0.19900
F1310       F  0.13488025  0.54269160  0.22325464    -0.20000
F1311       F  0.16387002  0.48544595  0.20197214    -0.20300
F1312       F  0.14776201  0.53979341  0.17627615    -0.22900
C1313       C  0.24359377  0.94243457  0.20590943    -0.05800
C1314       C  0.24403283  0.94616455  0.23607597     0.00100
C1315       C  0.24638200  0.90768963  0.25199178    -0.08400
C1316       C  0.25087950  0.86976575  0.23688039    -0.05800
C1317       C  0.25149688  0.86691161  0.20702409     0.00100
C1318       C  0.24676670  0.90434905  0.19106336    -0.08300
C1319       C  0.24643329  0.90543339  0.15828328     0.62000
H1320       H  0.24229748  0.97016595  0.19349037     0.12700
H1321       H  0.25511449  0.84132058  0.24864946     0.12700
C1322       C  0.24893528  0.90357040  0.28473008     0.62300
F1323       F  0.24268276  0.94511825  0.14775708    -0.22900
F1324       F  0.21282458  0.88483479  0.14767648    -0.20200
F1325       F  0.28337038  0.88759906  0.14774880    -0.19900
F1326       F  0.23540080  0.86588166  0.29339755    -0.20000
F1327       F  0.22436442  0.93257292  0.29920745    -0.20300
F1328       F  0.28995763  0.90580429  0.29359417    -0.22900
C1329       C  0.73802660  0.99240579  0.25112811    -0.02500
C1330       C  0.97079436  0.22722166  0.02056553     0.02300
C1331       C  0.96533303  0.22215356  0.99044434     0.02200
C1332       C  0.50274325  0.22240414  0.97064365    -0.18300
C1333       C  0.54183977  0.21698802  0.98372487     0.02300
C1334       C  0.54488993  0.21901711  0.01408347     0.02200
C1335       C  0.50920810  0.23256525  0.02920825    -0.18300
H1336       H  0.51173299  0.23835475  0.05211967     0.04300
H1337       H  0.50076674  0.22204222  0.94733893     0.04300
C1338       C  0.73954850  0.98191752  0.75412290    -0.02500
C1339       C  0.50903613  0.26847171  0.75057050    -0.02500
C1340       C  0.71785234  0.44003765  0.01546064     0.02300
C1341       C  0.71152614  0.44232405  0.98546049     0.02200
C1342       C  0.73475768  0.97460857  0.97086670    -0.18300
C1343       C  0.73132283  0.01372156  0.98398457     0.02300
C1344       C  0.73296591  0.01678789  0.01453568     0.02200
C1345       C  0.73415219  0.98077284  0.03046433    -0.18300
H1346       H  0.73605602  0.98271237  0.05371652     0.04300
H1347       H  0.73774166  0.97206044  0.94775018     0.04300
O1348       O  0.82540363  0.27568580  0.89317371    -0.80100
O1349       O  0.71060253  0.16074505  0.82715292    -0.80200
O1350       O  0.75129461  0.18589198  0.92550402    -0.80200
O1351       O  0.83501984  0.22080304  0.81802777    -0.80100
O1352       O  0.74212432  0.15564227  0.88334113    -0.80200
O1353       O  0.83852285  0.28429647  0.83497387    -0.80200
O1354       O  0.77601385  0.16374547  0.81645595    -0.80100
O1355       O  0.81830705  0.20924889  0.89527570    -0.80200
C1356       C  0.83749279  0.24075892  0.90301681     1.09500
C1357       C  0.74309561  0.14424679  0.81584579     1.09400
C1358       C  0.74695520  0.15336957  0.91102891     1.09600
C1359       C  0.85539445  0.25267148  0.82215689     1.09400
O1360       O  0.75172024  0.31871431  0.83072621    -0.80100
O1361       O  0.66247855  0.18116462  0.87322251    -0.80200
O1362       O  0.75756610  0.26693897  0.91920789    -0.80200
O1363       O  0.71244453  0.22856687  0.79651088    -0.80100
O1364       O  0.67818468  0.24366602  0.83631404    -0.80200
O1365       O  0.73883092  0.30864760  0.88524884    -0.80200
O1366       O  0.77768489  0.28313632  0.79455145    -0.80100
O1367       O  0.69295297  0.23056190  0.89685146    -0.80200
Co1368     Co  0.78675549  0.29337303  0.86048634     1.51500
Co1369     Co  0.71236083  0.20314852  0.85902416     1.51700
Co1370     Co  0.75683898  0.21787882  0.89260458     1.51600
Co1371     Co  0.77443700  0.22426042  0.80941448     1.51500
O1372       O  0.76256578  0.23770865  0.85194623    -1.42100
C1373       C  0.76262465  0.31688807  0.80509240     1.09500
C1374       C  0.66212140  0.20711163  0.89362078     1.09600
C1375       C  0.74139554  0.30122892  0.91154411     1.09500
C1376       C  0.67867775  0.24151787  0.80918274     1.09500
O1377       O  0.83241819  0.29717604  0.17449629    -0.80100
O1378       O  0.75436037  0.15692210  0.11713133    -0.80200
O1379       O  0.77840050  0.17120579  0.18778162    -0.80200
O1380       O  0.83392274  0.21499171  0.11896207    -0.80100
O1381       O  0.71612766  0.16369164  0.17022630    -0.80200
O1382       O  0.83559132  0.28201322  0.11730570    -0.80200
O1383       O  0.78292167  0.18255149  0.07851876    -0.80100
O1384       O  0.83244193  0.23335579  0.18911545    -0.80200
C1385       C  0.85172303  0.26591773  0.18563037     1.09500
C1386       C  0.76803306  0.15224724  0.09096741     1.09400
C1387       C  0.74737460  0.14919116  0.18446131     1.09600
C1388       C  0.85308443  0.24650314  0.11255279     1.09400
O1389       O  0.74599413  0.30830200  0.11242978    -0.80100
O1390       O  0.67988748  0.24421579  0.15921911    -0.80200
O1391       O  0.76670412  0.29343455  0.20666802    -0.80200
O1392       O  0.71191702  0.22371228  0.09476244    -0.80100
O1393       O  0.67409764  0.18153784  0.11922874    -0.80200
O1394       O  0.74191874  0.32061380  0.16769698    -0.80200
O1395       O  0.77851835  0.26650718  0.08306683    -0.80100
O1396       O  0.70909197  0.23166551  0.20135167    -0.80200
Co1397     Co  0.78697896  0.29898631  0.14334794     1.51500
Co1398     Co  0.71929797  0.20536997  0.13842844     1.51700
Co1399     Co  0.77151141  0.23239819  0.19330998     1.51600
Co1400     Co  0.77403944  0.21817192  0.11025028     1.51500
O1401       O  0.76566861  0.24199900  0.14986470    -1.42100
C1402       C  0.75671637  0.29962751  0.08720706     1.09500
C1403       C  0.67682949  0.24264281  0.18636798     1.09600
C1404       C  0.74978569  0.32453288  0.19368504     1.09500
C1405       C  0.67957413  0.20162106  0.09642481     1.09500
O1406       O  0.57755916  0.01042954  0.65874354    -0.80100
O1407       O  0.99845160  0.45142674  0.61307943    -0.80200
O1408       O  0.48427870  0.46847998  0.70801706    -0.80200
O1409       O  0.53624170  0.52476354  0.59506726    -0.80100
O1410       O  0.00435724  0.43926735  0.66870013    -0.80200
O1411       O  0.58393391  0.06814307  0.61599776    -0.80200
O1412       O  0.46641976  0.49059668  0.58458227    -0.80100
O1413       O  0.54346730  0.52716364  0.70102936    -0.80200
C1414       C  0.58056659  0.01412420  0.68583084     1.09500
C1415       C  0.98698540  0.45878870  0.58776586     1.09400
C1416       C  0.99891591  0.44010784  0.69519639     1.09600
C1417       C  0.57702066  0.04403388  0.59503028     1.09400
O1418       O  0.50206932  0.09631950  0.61769416    -0.80100
O1419       O  0.91572948  0.46716857  0.67649145    -0.80200
O1420       O  0.98001139  0.09152954  0.68718354    -0.80200
O1421       O  0.92035458  0.04959293  0.62152908    -0.80100
O1422       O  0.91110044  0.48049888  0.61871624    -0.80200
O1423       O  0.54381262  0.09319365  0.66876699    -0.80200
O1424       O  0.97173593  0.07605271  0.57953329    -0.80100
O1425       O  0.92318044  0.03083008  0.69196479    -0.80200
Co1426     Co  0.53807975  0.04868773  0.63787471     1.51500
Co1427     Co  0.95941795  0.46279723  0.64450938     1.51700
Co1428     Co  0.48544975  0.02746841  0.69297000     1.51600
Co1429     Co  0.48272395  0.03589340  0.61035300     1.51500
O1430       O  0.49066207  0.01371564  0.65030959    -1.42100
C1431       C  0.48900909  0.10128451  0.59159558     1.09500
C1432       C  0.89832340  0.49880951  0.68883961     1.09600
C1433       C  0.51292836  0.10880076  0.68295249     1.09500
C1434       C  0.89517201  0.51552404  0.61149664     1.09500
O1435       O  0.54012902  0.08821401  0.32873696    -0.80100
O1436       O  0.92211895  0.47860381  0.38932288    -0.80200
O1437       O  0.92024078  0.03782522  0.31147223    -0.80200
O1438       O  0.00183991  0.07298405  0.41953647    -0.80100
O1439       O  0.91235219  0.46432244  0.33171981    -0.80200
O1440       O  0.50964421  0.09668273  0.38266893    -0.80200
O1441       O  0.93639684  0.05186021  0.39441825    -0.80100
O1442       O  0.98233136  0.09205190  0.31079792    -0.80200
C1443       C  0.50827928  0.10379787  0.31575054     1.09500
C1444       C  0.91202958  0.51286493  0.40172588     1.09400
C1445       C  0.89340514  0.49488663  0.31962081     1.09600
C1446       C  0.50597930  0.09863119  0.40999738     1.09400
O1447       O  0.58836462  0.06471775  0.37675640    -0.80100
O1448       O  0.99998387  0.43340124  0.32921309    -0.80200
O1449       O  0.53278945  0.52093017  0.29500188    -0.80200
O1450       O  0.48155145  0.47963873  0.42130635    -0.80100
O1451       O  0.01043649  0.44567990  0.38389053    -0.80200
O1452       O  0.57044054  0.00484446  0.33827894    -0.80200
O1453       O  0.55283397  0.51428755  0.39890551    -0.80100
O1454       O  0.47139548  0.46170792  0.29357209    -0.80200
Co1455     Co  0.53773916  0.04698381  0.36059152     1.51500
Co1456     Co  0.96309297  0.45994066  0.35788909     1.51700
Co1457     Co  0.47144064  0.52261318  0.30698313     1.51600
Co1458     Co  0.48928834  0.52294390  0.39388274     1.51500
O1459       O  0.48124623  0.51529701  0.35054673    -1.42100
C1460       C  0.59019153  0.03834915  0.39672350     1.09500
C1461       C  0.99055663  0.43377915  0.30318694     1.09600
C1462       C  0.57190115  0.00773162  0.31120031     1.09500
C1463       C  0.00426288  0.44767821  0.41039609     1.09500
C1464       C  0.01534681  0.31797388  0.51463764     0.02300
C1465       C  0.03139837  0.31360198  0.48669267     0.02200
C1466       C  0.03595613  0.27417927  0.47447080    -0.18300
C1467       C  0.02052880  0.23991318  0.48790994     0.02300
C1468       C  0.00344236  0.24452581  0.51591940     0.02200
C1469       C  0.00106386  0.28372215  0.52864713    -0.18300
H1470       H  0.98900233  0.28745540  0.55028951     0.04300
H1471       H  0.04732288  0.27091821  0.45260734     0.04300
C1472       C  0.78734179  0.03284899  0.51837515     0.02300
C1473       C  0.79150492  0.02500292  0.48853354     0.02200
C1474       C  0.74774747  0.50795987  0.47059548    -0.18300
C1475       C  0.71584953  0.02476961  0.48384320     0.02300
C1476       C  0.71159076  0.02797038  0.51406886     0.02200
C1477       C  0.74732999  0.03552502  0.53028329    -0.18300
H1478       H  0.74434748  0.04066662  0.55324888     0.04300
H1479       H  0.75107402  0.50333382  0.44757061     0.04300
C1480       C  0.01567083  0.26664768  0.24686386    -0.02500
C1481       C  0.96287975  0.37201065  0.27866530    -0.05800
C1482       C  0.99769876  0.39432344  0.28623935     0.00100
C1483       C  0.53472763  0.36838202  0.28595206    -0.08400
C1484       C  0.53813655  0.33067285  0.27083254    -0.05800
C1485       C  0.00689358  0.31124041  0.26162158     0.00100
C1486       C  0.96633849  0.32988231  0.26977561    -0.08300
C1487       C  0.92547242  0.30813912  0.27206570     0.62000
H1488       H  0.93223695  0.38612557  0.28319606     0.12700
H1489       H  0.56940491  0.32022800  0.26575333     0.12700
C1490       C  0.57506362  0.38223974  0.29954728     0.62300
F1491       F  0.89775406  0.32275624  0.25133226    -0.22900
F1492       F  0.90759120  0.31714397  0.29850246    -0.20200
F1493       F  0.92998306  0.26596751  0.26987763    -0.19900
F1494       F  0.58932810  0.35278709  0.31895186    -0.20000
F1495       F  0.57079253  0.41925647  0.31407267    -0.20300
F1496       F  0.60509949  0.38553084  0.27862315    -0.22900
C1497       C  0.53416881  0.18600154  0.26182150    -0.05800
C1498       C  0.51206013  0.22270770  0.27136130     0.00100
C1499       C  0.00042156  0.22499681  0.29759784    -0.08400
C1500       C  0.99627349  0.18506738  0.30902586    -0.05800
C1501       C  0.51018675  0.14393631  0.30054580     0.00100
C1502       C  0.53343486  0.14754395  0.27541566    -0.08300
C1503       C  0.55530833  0.10990618  0.26183587     0.62000
H1504       H  0.55331019  0.18680503  0.24313777     0.12700
H1505       H  0.97833209  0.18150219  0.32844307     0.12700
C1506       C  0.99235450  0.25808303  0.32077625     0.62300
F1507       F  0.57499354  0.11890930  0.23649165    -0.22900
F1508       F  0.52623533  0.08101989  0.25573655    -0.20200
F1509       F  0.58504602  0.09353881  0.28061710    -0.19900
F1510       F  0.95030661  0.26151995  0.32705050    -0.20000
F1511       F  0.00640054  0.29607143  0.31508420    -0.20300
F1512       F  0.01342235  0.24592761  0.34557052    -0.22900
C1513       C  0.98663620  0.20578025  0.44717948    -0.05800
C1514       C  0.51045399  0.19977267  0.47008020     0.00100
C1515       C  0.54269281  0.16875801  0.46921412    -0.08400
C1516       C  0.53927718  0.13598615  0.44942856    -0.05800
C1517       C  0.50789465  0.13627582  0.42800853     0.00100
C1518       C  0.98496656  0.17624242  0.42499809    -0.08300
C1519       C  0.95289849  0.18434435  0.40142229     0.62000
H1520       H  0.96508356  0.23253286  0.44655339     0.12700
H1521       H  0.56238753  0.11055503  0.44964606     0.12700
C1522       C  0.58255552  0.17286560  0.48651601     0.62300
F1523       F  0.91377856  0.19126168  0.41333383    -0.22900
F1524       F  0.95079143  0.15254942  0.38170650    -0.20200
F1525       F  0.96300551  0.21925661  0.38699595    -0.19900
F1526       F  0.60980746  0.13923118  0.48261552    -0.20000
F1527       F  0.57429137  0.17629822  0.51538909    -0.20300
F1528       F  0.60213532  0.20756803  0.47788331    -0.22900
C1529       C  0.53253434  0.41579594  0.45294271    -0.05800
C1530       C  0.01386964  0.41306118  0.42868813     0.00100
C1531       C  0.99474346  0.37569294  0.42375813    -0.08400
C1532       C  0.00156415  0.34478514  0.44375041    -0.05800
C1533       C  0.02997364  0.34845703  0.46661517     0.00100
C1534       C  0.54330624  0.38210599  0.47022179    -0.08300
C1535       C  0.58149315  0.38528634  0.48920584     0.62000
H1536       H  0.54889716  0.44403810  0.45554562     0.12700
H1537       H  0.98453075  0.31700555  0.44159408     0.12700
C1538       C  0.96699161  0.36833905  0.39775610     0.62300
F1539       F  0.61449814  0.39720605  0.47276420    -0.22900
F1540       F  0.59347245  0.34828461  0.50168136    -0.20200
F1541       F  0.57377704  0.41471850  0.51041968    -0.19900
F1542       F  0.99028854  0.37005473  0.37297338    -0.20000
F1543       F  0.93440462  0.39766666  0.39674417    -0.20300
F1544       F  0.94999369  0.33011410  0.39838694    -0.22900
C1545       C  0.64113227  0.06980974  0.42833906    -0.05800
C1546       C  0.62646997  0.03396405  0.41588808     0.00100
C1547       C  0.64281283  0.99493815  0.42494821    -0.08400
C1548       C  0.66824603  0.99302236  0.44958714    -0.05800
C1549       C  0.68144289  0.02892933  0.46292155     0.00100
C1550       C  0.67062992  0.06781643  0.45065420    -0.08300
C1551       C  0.69216066  0.10653372  0.45980531     0.62000
H1552       H  0.62958274  0.09936388  0.42025354     0.12700
H1553       H  0.68047622  0.96357012  0.45744394     0.12700
C1554       C  0.63777476  0.95642949  0.40672696     0.62300
F1555       F  0.67506139  0.14120401  0.44629509    -0.22900
F1556       F  0.73388213  0.10270346  0.45255439    -0.20200
F1557       F  0.68378915  0.60169612  0.48961407    -0.19900
F1558       F  0.64959984  0.96393475  0.37883287    -0.20000
F1559       F  0.58732250  0.44077712  0.40465473    -0.20300
F1560       F  0.65345937  0.41816213  0.41096824    -0.22900
C1561       C  0.86704611  0.47627201  0.43513948    -0.05800
C1562       C  0.87971425  0.51424604  0.42484046     0.00100
C1563       C  0.86440392  0.55099481  0.43895629    -0.08400
C1564       C  0.83626966  0.54808539  0.46180759    -0.05800
C1565       C  0.82339156  0.51028041  0.47157944     0.00100
C1566       C  0.83959768  0.47360405  0.45832837    -0.08300
C1567       C  0.82781226  0.43095783  0.46708567     0.62000
H1568       H  0.87893048  0.44784950  0.42518628     0.12700
H1569       H  0.82670924  0.08912695  0.46889952     0.12700
C1570       C  0.87510758  0.10455510  0.42332646     0.62300
F1571       F  0.80563408  0.41338288  0.44498255    -0.22900
F1572       F  0.80393425  0.43129358  0.49167562    -0.20200
F1573       F  0.86931470  0.91867346  0.47163992    -0.19900
F1574       F  0.85430048  0.62445073  0.44473318    -0.20000
F1575       F  0.86632756  0.10549219  0.39420880    -0.20300
F1576       F  0.91655610  0.11173147  0.42813753    -0.22900
C1577       C  0.62739525  0.53842840  0.52216633    -0.05800
C1578       C  0.67239317  0.02244322  0.53054638     0.00100
C1579       C  0.67300665  0.99934843  0.55639407    -0.08400
C1580       C  0.64235490  0.00854716  0.57722523    -0.05800
C1581       C  0.60818353  0.03570428  0.57170078     0.00100
C1582       C  0.60267655  0.05032023  0.54316457    -0.08300
C1583       C  0.55363755  0.56396446  0.53174125     0.62000
H1584       H  0.62490991  0.55284016  0.50147402     0.12700
H1585       H  0.64419335  0.99281776  0.59748831     0.12700
C1586       C  0.70485851  0.96446650  0.56277622     0.62300
F1587       F  0.56210645  0.07799940  0.50378053    -0.22900
F1588       F  0.55569511  0.10729832  0.54711521    -0.20200
F1589       F  0.52170151  0.53957199  0.53928226    -0.19900
F1590       F  0.73090899  0.97605031  0.58487257    -0.20000
F1591       F  0.71752025  0.44436858  0.53837878    -0.20300
F1592       F  0.68431019  0.93022709  0.57119687    -0.22900
C1593       C  0.85743956  0.55405242  0.57271711    -0.05800
C1594       C  0.86191819  0.51771599  0.58894811     0.00100
C1595       C  0.83958696  0.48297357  0.58004613    -0.08400
C1596       C  0.81723474  0.48500739  0.55406709    -0.05800
C1597       C  0.81299484  0.52119891  0.53804613     0.00100
C1598       C  0.83162989  0.55705053  0.54827263    -0.08300
C1599       C  0.82610597  0.59871123  0.53398374     0.62000
H1600       H  0.87423920  0.58074549  0.57915914     0.12700
H1601       H  0.80913888  0.96652833  0.54580190     0.12700
C1602       C  0.83797966  0.44402544  0.59771312     0.62300
F1603       F  0.84454496  0.13797304  0.55719059    -0.22900
F1604       F  0.79359945  0.11566383  0.52917112    -0.20200
F1605       F  0.86060092  0.60467610  0.51721922    -0.19900
F1606       F  0.83822945  0.95324087  0.62511782    -0.20000
F1607       F  0.87524175  0.42095942  0.59565465    -0.20300
F1608       F  0.80648243  0.41939776  0.58839677    -0.22900
C1609       C  0.95856305  0.15280016  0.55385072    -0.05800
C1610       C  0.48803729  0.14200744  0.57696793     0.00100
C1611       C  0.51957224  0.17153240  0.57998492    -0.08400
C1612       C  0.52092716  0.20252450  0.55941065    -0.05800
C1613       C  0.49271919  0.20632432  0.53641469     0.00100
C1614       C  0.96121571  0.18463275  0.53371259    -0.08300
C1615       C  0.92628430  0.19008693  0.51176192     0.62000
H1616       H  0.93342780  0.13192897  0.55145815     0.12700
H1617       H  0.54595005  0.22375855  0.56059351     0.12700
C1618       C  0.55672476  0.17029299  0.60068328     0.62300
F1619       F  0.88835938  0.19274295  0.52575366    -0.22900
F1620       F  0.92719896  0.15642319  0.49336095    -0.20200
F1621       F  0.92869916  0.22534604  0.49575945    -0.19900
F1622       F  0.59220453  0.15615990  0.58620405    -0.20000
F1623       F  0.55231836  0.14650775  0.62436001    -0.20300
F1624       F  0.56324515  0.20963302  0.61076650    -0.22900
C1625       C  0.98524474  0.38868590  0.52162586    -0.05800
C1626       C  0.01384470  0.35731059  0.53052304     0.00100
C1627       C  0.53400101  0.36005705  0.55568768    -0.08400
C1628       C  0.52696970  0.39530940  0.57254483    -0.05800
C1629       C  0.99807799  0.42764688  0.56523888     0.00100
C1630       C  0.97743742  0.42450873  0.53827415    -0.08300
C1631       C  0.94594279  0.45714279  0.52747980     0.62000
H1632       H  0.96770195  0.38399089  0.50203444     0.12700
H1633       H  0.54588431  0.39854636  0.59174559     0.12700
C1634       C  0.56890865  0.32982742  0.56544127     0.62300
F1635       F  0.93165605  0.44824876  0.50011860    -0.22900
F1636       F  0.96393644  0.49474635  0.52645211    -0.20200
F1637       F  0.91206123  0.45977703  0.54554598    -0.19900
F1638       F  0.60502593  0.35070806  0.56966122    -0.20000
F1639       F  0.57803014  0.29837685  0.54599685    -0.20300
F1640       F  0.55785652  0.31269635  0.59118224    -0.22900
C1641       C  0.63396318  0.24634811  0.23124710    -0.05800
C1642       C  0.63506557  0.25095236  0.20134378     0.00100
C1643       C  0.59658990  0.26179071  0.18732147    -0.08400
C1644       C  0.55927956  0.26580873  0.20359153    -0.05800
C1645       C  0.55713160  0.26058364  0.23390287     0.00100
C1646       C  0.59726712  0.25201818  0.24788409    -0.08300
C1647       C  0.60567984  0.24758701  0.28008717     0.62000
H1648       H  0.66299767  0.23824484  0.24231854     0.12700
H1649       H  0.53127522  0.27266839  0.19163656     0.12700
C1650       C  0.59389733  0.26850509  0.15504191     0.62300
F1651       F  0.61715147  0.20697171  0.28599818    -0.22900
F1652       F  0.57283119  0.25977003  0.29733470    -0.20200
F1653       F  0.63838935  0.27162807  0.28794471    -0.19900
F1654       F  0.60496546  0.23220409  0.14076845    -0.20000
F1655       F  0.62016434  0.29889984  0.14726321    -0.20300
F1656       F  0.55403192  0.28078972  0.14599422    -0.22900
C1657       C  0.91382165  0.22964331  0.20780028    -0.05800
C1658       C  0.89659157  0.26635900  0.19625606     0.00100
C1659       C  0.92318608  0.29994639  0.19474627    -0.08400
C1660       C  0.96286982  0.29686249  0.20870977    -0.05800
C1661       C  0.97828479  0.26124351  0.22388296     0.00100
C1662       C  0.95493498  0.22509840  0.21856448    -0.08300
C1663       C  0.97280410  0.18100274  0.21849421     0.62000
H1664       H  0.89519220  0.20279182  0.20741537     0.12700
H1665       H  0.98157402  0.32361683  0.20921014     0.12700
C1666       C  0.90957791  0.33960734  0.17975601     0.62300
F1667       F  0.95099108  0.15614564  0.19995243    -0.22900
F1668       F  0.96968346  0.16445201  0.24545597    -0.20200
F1669       F  0.01317570  0.17913804  0.20845412    -0.19900
F1670       F  0.87542869  0.35811622  0.19358690    -0.20000
F1671       F  0.89932102  0.33119776  0.15149080    -0.20300
F1672       F  0.94086240  0.36741454  0.17971270    -0.22900
C1673       C  0.71954222  0.10321337  0.06999238    -0.05800
C1674       C  0.76103522  0.11411182  0.07394978     0.00100
C1675       C  0.79273674  0.09302711  0.05773607    -0.08400
C1676       C  0.78147922  0.06373668  0.03699663    -0.05800
C1677       C  0.73970004  0.05497605  0.03150052     0.00100
C1678       C  0.70819493  0.07416735  0.04907880    -0.08300
C1679       C  0.66240199  0.06472823  0.04738535     0.62000
H1680       H  0.69524274  0.11859220  0.08274022     0.12700
H1681       H  0.80566780  0.04537714  0.02605635     0.12700
C1682       C  0.83839585  0.09829728  0.06430750     0.62300
F1683       F  0.63876302  0.10085114  0.04296584    -0.22900
F1684       F  0.65064481  0.04791557  0.07307509    -0.20200
F1685       F  0.65347124  0.03760254  0.02549507    -0.19900
F1686       F  0.84582388  0.08841792  0.09272096    -0.20000
F1687       F  0.84851284  0.13834896  0.05936424    -0.20300
F1688       F  0.86431522  0.07270315  0.04758176    -0.22900
C1689       C  0.75950633  0.37486412  0.02475301    -0.05800
C1690       C  0.72377310  0.40009519  0.03065691     0.00100
C1691       C  0.69533119  0.38743227  0.05156062    -0.08400
C1692       C  0.70685624  0.35351901  0.06872633    -0.05800
C1693       C  0.74404155  0.32963091  0.06425264     0.00100
C1694       C  0.76915522  0.33871307  0.04038691    -0.08300
C1695       C  0.80737857  0.31227818  0.03260459     0.62000
H1696       H  0.78035667  0.38430804  0.00813846     0.12700
H1697       H  0.68630512  0.34560700  0.08600909     0.12700
C1698       C  0.65240461  0.40793001  0.05656211     0.62300
F1699       F  0.79669217  0.27236660  0.02689058    -0.22900
F1700       F  0.83463222  0.31280694  0.05533143    -0.20200
F1701       F  0.82732167  0.32655073  0.00871540    -0.19900
F1702       F  0.64076524  0.43639182  0.03583225    -0.20000
F1703       F  0.65172038  0.42722023  0.08315508    -0.20300
F1704       F  0.62299946  0.37820850  0.05621629    -0.22900
C1705       C  0.77084643  0.06961036  0.96504062    -0.05800
C1706       C  0.73351644  0.04947938  0.96483113     0.00100
C1707       C  0.70279372  0.05954942  0.94355871    -0.08400
C1708       C  0.71022046  0.09145669  0.92427435    -0.05800
C1709       C  0.74613161  0.11409112  0.92649292     0.00100
C1710       C  0.77743793  0.10225994  0.94665400    -0.08300
C1711       C  0.81895318  0.12199305  0.94737760     0.62000
H1712       H  0.79549707  0.05869065  0.97928504     0.12700
H1713       H  0.68756076  0.09969195  0.90775328     0.12700
C1714       C  0.66224496  0.03738971  0.94131429     0.62300
F1715       F  0.84693604  0.10153389  0.96563039    -0.22900
F1716       F  0.81407525  0.16229438  0.95686900    -0.20200
F1717       F  0.83531717  0.12048652  0.91999892    -0.19900
F1718       F  0.63432623  0.05692089  0.92254557    -0.20000
F1719       F  0.64352231  0.03625041  0.96789129    -0.20300
F1720       F  0.66977545  0.99764416  0.93131744    -0.22900
C1721       C  0.69644995  0.37181018  0.97074557    -0.05800
C1722       C  0.71896246  0.40663100  0.96606537     0.00100
C1723       C  0.74892933  0.40636463  0.94370736    -0.08400
C1724       C  0.75345748  0.37133586  0.92618408    -0.05800
C1725       C  0.73251977  0.33549893  0.93181697     0.00100
C1726       C  0.70423092  0.33538703  0.95508404    -0.08300
C1727       C  0.68099054  0.29927620  0.96514718     0.62000
H1728       H  0.67335075  0.37263543  0.98768914     0.12700
H1729       H  0.77479992  0.37125530  0.90821241     0.12700
C1730       C  0.77666086  0.44204905  0.93795594     0.62300
F1731       F  0.69056659  0.29310776  0.99373772    -0.22900
F1732       F  0.69060827  0.26340002  0.95019646    -0.20200
F1733       F  0.63869762  0.30881577  0.96289400    -0.19900
F1734       F  0.79020949  0.45929799  0.96339299    -0.20000
F1735       F  0.75503244  0.47170333  0.92193497    -0.20300
F1736       F  0.81185477  0.42908609  0.92262458    -0.22900
C1737       C  0.51413428  0.19102201  0.74239743    -0.05800
C1738       C  0.51110643  0.22987682  0.72811024     0.00100
C1739       C  0.51285871  0.22699748  0.69681813    -0.08400
C1740       C  0.51232751  0.18706800  0.68329839    -0.05800
C1741       C  0.51454194  0.14988564  0.69845819     0.00100
C1742       C  0.51712563  0.15223516  0.72858604    -0.08300
C1743       C  0.02915908  0.11908388  0.74670883     0.62000
H1744       H  0.01561692  0.19646164  0.76597898     0.12700
H1745       H  0.51091728  0.18427968  0.66023435     0.12700
C1746       C  0.51965369  0.26243679  0.67629416     0.62300
F1747       F  0.52819452  0.12222666  0.77537596    -0.22900
F1748       F  0.56272798  0.09443074  0.73781188    -0.20200
F1749       F  0.99768057  0.09165013  0.74504966    -0.19900
F1750       F  0.56073879  0.27294784  0.67798100    -0.20000
F1751       F  0.98902722  0.30024905  0.68088615    -0.20300
F1752       F  0.51227710  0.25144697  0.64800644    -0.22900
C1753       C  0.53983361  0.32873689  0.72320976    -0.05800
C1754       C  0.00332503  0.32003495  0.73865007     0.00100
C1755       C  0.97193901  0.35344683  0.74496456    -0.08400
C1756       C  0.97255642  0.39071741  0.72958207    -0.05800
C1757       C  0.00437098  0.40030970  0.71124814     0.00100
C1758       C  0.53990751  0.36726342  0.70897801    -0.08300
C1759       C  0.57632043  0.37710921  0.69011582     0.62000
H1760       H  0.56722244  0.30836852  0.72146215     0.12700
H1761       H  0.94692340  0.41359033  0.73179513     0.12700
C1762       C  0.93704139  0.35623854  0.76735614     0.62300
F1763       F  0.60998970  0.34931476  0.69367872    -0.22900
F1764       F  0.58912649  0.41596809  0.69674780    -0.20200
F1765       F  0.56419112  0.37590212  0.66160268    -0.19900
F1766       F  0.94439626  0.33316344  0.79125550    -0.20000
F1767       F  0.89996264  0.34650954  0.75438142    -0.20300
F1768       F  0.93164710  0.39608243  0.77812415    -0.22900
C1769       C  0.58771670  0.24229263  0.75418786    -0.05800
C1770       C  0.55389406  0.26545642  0.76778964     0.00100
C1771       C  0.56706665  0.28802780  0.79319811    -0.08400
C1772       C  0.60763299  0.27882299  0.80538580    -0.05800
C1773       C  0.63798890  0.25155171  0.79293035     0.00100
C1774       C  0.62750311  0.23345206  0.76638021    -0.08300
C1775       C  0.65744052  0.20330796  0.75096347     0.62000
H1776       H  0.58416774  0.23139754  0.73251804     0.12700
H1777       H  0.61673931  0.29386744  0.82507188     0.12700
C1778       C  0.54231751  0.32418037  0.80732857     0.62300
F1779       F  0.64005618  0.18637454  0.72653626    -0.22900
F1780       F  0.66842475  0.17126823  0.76919916    -0.20200
F1781       F  0.69247334  0.22316287  0.74268545    -0.19900
F1782       F  0.50811933  0.31134170  0.82165521    -0.20000
F1783       F  0.53046270  0.35335401  0.78737695    -0.20300
F1784       F  0.56587698  0.34440008  0.82755360    -0.22900
C1785       C  0.97129298  0.25300177  0.79879172    -0.05800
C1786       C  0.96729347  0.26369406  0.76925342     0.00100
C1787       C  0.92516528  0.26236751  0.75751745    -0.08400
C1788       C  0.89105325  0.25926003  0.77627146    -0.05800
C1789       C  0.89540284  0.25550140  0.80582788     0.00100
C1790       C  0.93619235  0.25075946  0.81738922    -0.08300
C1791       C  0.94223313  0.24378362  0.84924309     0.62000
H1792       H  0.00214186  0.24756388  0.80772217     0.12700
H1793       H  0.85946818  0.25961336  0.76791179     0.12700
C1794       C  0.91362614  0.26282071  0.72562286     0.62300
F1795       F  0.98405445  0.23948632  0.85670636    -0.22900
F1796       F  0.92311941  0.20845972  0.85710205    -0.20200
F1797       F  0.92447464  0.27695391  0.86437074    -0.19900
F1798       F  0.92623400  0.22589335  0.71288093    -0.20000
F1799       F  0.93066164  0.29492861  0.71200557    -0.20300
F1800       F  0.87097219  0.26770495  0.72093115    -0.22900
C1801       C  0.80717782  0.51505458  0.74224850    -0.05800
C1802       C  0.77706783  0.48598188  0.73377151     0.00100
C1803       C  0.79170318  0.45823984  0.71082100    -0.08400
C1804       C  0.83058765  0.46426197  0.69704612    -0.05800
C1805       C  0.85699690  0.49590414  0.70436292     0.00100
C1806       C  0.84509926  0.52137721  0.72805269    -0.08300
C1807       C  0.87327659  0.55414679  0.73987091     0.62000
H1808       H  0.80302611  0.53255870  0.76166411     0.12700
H1809       H  0.84156525  0.44270004  0.68059068     0.12700
C1810       C  0.77247827  0.41795477  0.70239958     0.62300
F1811       F  0.86425836  0.06806491  0.76878913    -0.22900
F1812       F  0.88204028  0.08210035  0.72398660    -0.20200
F1813       F  0.91249258  0.53658710  0.74592218    -0.19900
F1814       F  0.77028383  0.92430161  0.67049908    -0.20000
F1815       F  0.73032031  0.41905722  0.70557881    -0.20300
F1816       F  0.79009477  0.38653436  0.71892192    -0.22900
C1817       C  0.69830629  0.99406748  0.70594788    -0.05800
C1818       C  0.69739289  0.99194057  0.73631215     0.00100
C1819       C  0.65705005  0.00316931  0.74916409    -0.08400
C1820       C  0.62127430  0.00884709  0.73150475    -0.05800
C1821       C  0.62203007  0.00615974  0.70154945     0.00100
C1822       C  0.66188629  0.99911825  0.68850489    -0.08300
C1823       C  0.66664131  0.99669570  0.65625154     0.62000
H1824       H  0.72791140  0.99141814  0.69538504     0.12700
H1825       H  0.59148912  0.01636812  0.74143342     0.12700
C1826       C  0.64914604  0.01213297  0.78107781     0.62300
F1827       F  0.70771294  0.98926244  0.64792534    -0.22900
F1828       F  0.65259132  0.03361950  0.64440011    -0.20200
F1829       F  0.63674235  0.46269795  0.64645666    -0.19900
F1830       F  0.65941899  0.05184933  0.78771305    -0.20000
F1831       F  0.66804365  0.47915065  0.79754591    -0.20300
F1832       F  0.60284484  0.49930778  0.78870135    -0.22900
C1833       C  0.74222767  0.06741178  0.81792958    -0.05800
C1834       C  0.74248024  0.10310297  0.80120073     0.00100
C1835       C  0.74426005  0.09830542  0.77110196    -0.08400
C1836       C  0.73972658  0.05917287  0.75909472    -0.05800
C1837       C  0.74035052  0.02172646  0.77495693     0.00100
C1838       C  0.74450109  0.02661946  0.80593811    -0.08300
C1839       C  0.75631375  0.99238356  0.82722280     0.62000
H1840       H  0.74328445  0.07213938  0.84095322     0.12700
H1841       H  0.73926551  0.05742673  0.73583823     0.12700
C1842       C  0.75268633  0.13217144  0.74991752     0.62300
F1843       F  0.75136555  0.00561431  0.85541612    -0.22900
F1844       F  0.79799417  0.98081114  0.82401570    -0.20200
F1845       F  0.73235896  0.95867313  0.82427402    -0.19900
F1846       F  0.78943130  0.12177766  0.73558725    -0.20000
F1847       F  0.75673117  0.17030138  0.76245885    -0.20300
F1848       F  0.72067942  0.13521661  0.72990348    -0.22900
C1849       C  0.77691769  0.42513797  0.77790004    -0.05800
C1850       C  0.73732954  0.43690600  0.76577681     0.00100
C1851       C  0.70785218  0.40341541  0.76341888    -0.08400
C1852       C  0.71982096  0.36437657  0.77512616    -0.05800
C1853       C  0.75788106  0.35555494  0.78839420     0.00100
C1854       C  0.78663564  0.38664992  0.79052380    -0.08300
C1855       C  0.82690457  0.37965649  0.80735052     0.62000
H1856       H  0.80079538  0.44728852  0.77822785     0.12700
H1857       H  0.69831683  0.33977805  0.77561772     0.12700
C1858       C  0.66324188  0.40403636  0.75049952     0.62300
F1859       F  0.85236744  0.41263428  0.80565074    -0.22900
F1860       F  0.84858519  0.34521936  0.79674856    -0.20200
F1861       F  0.81791164  0.37373411  0.83596461    -0.19900
F1862       F  0.66033575  0.42104207  0.72378928    -0.20000
F1863       F  0.63505559  0.42346629  0.76883143    -0.20300
F1864       F  0.64909886  0.36480528  0.74644313    -0.22900
C1865       C  0.60960540  0.18454363  0.07835783    -0.05800
C1866       C  0.64814166  0.20096528  0.07256949     0.00100
C1867       C  0.65569023  0.21345119  0.04386864    -0.08400
C1868       C  0.62163427  0.21954477  0.02492719    -0.05800
C1869       C  0.58227897  0.20588297  0.03166754     0.00100
C1870       C  0.57813168  0.18327667  0.05747760    -0.08300
C1871       C  0.54163812  0.15703149  0.06417148     0.62000
H1872       H  0.60431995  0.17092271  0.09907363     0.12700
H1873       H  0.62596940  0.23529124  0.00493955     0.12700
C1874       C  0.69906414  0.21638747  0.03191632     0.62300
F1875       F  0.55660494  0.11897712  0.07384565    -0.22900
F1876       F  0.51678516  0.14998450  0.04048059    -0.20200
F1877       F  0.51777017  0.17598737  0.08557397    -0.19900
F1878       F  0.72359451  0.18263814  0.04000009    -0.20000
F1879       F  0.71623864  0.25184689  0.04163937    -0.20300
F1880       F  0.69880989  0.21618748  0.00221256    -0.22900
C1881       C  0.90362360  0.27687678  0.07937811    -0.05800
C1882       C  0.89064014  0.24209277  0.09376138     0.00100
C1883       C  0.90923840  0.20329868  0.08594661    -0.08400
C1884       C  0.92929695  0.19927755  0.05912150    -0.05800
C1885       C  0.93767394  0.23383673  0.04243741     0.00100
C1886       C  0.92782629  0.27359144  0.05427400    -0.08300
C1887       C  0.94317774  0.31349174  0.04239758     0.62000
H1888       H  0.89420417  0.30722604  0.08754981     0.12700
H1889       H  0.94223337  0.16939268  0.05230314     0.12700
C1890       C  0.91504524  0.16916829  0.10797183     0.62300
F1891       F  0.90935514  0.33887139  0.03440079    -0.22900
F1892       F  0.96899087  0.30802633  0.01891894    -0.20200
F1893       F  0.96523772  0.33320252  0.06363407    -0.19900
F1894       F  0.94303503  0.13823694  0.09859075    -0.20000
F1895       F  0.87807963  0.15146095  0.11392513    -0.20300
F1896       F  0.93066038  0.18542483  0.13318476    -0.22900
C1897       C  0.58182514  0.24827875  0.94639608    -0.05800
C1898       C  0.57695278  0.21345434  0.96350881     0.00100
C1899       C  0.59704182  0.17541221  0.95546048    -0.08400
C1900       C  0.62342622  0.17446060  0.93157431    -0.05800
C1901       C  0.62866262  0.20937627  0.91489516     0.00100
C1902       C  0.60638187  0.24660608  0.92160780    -0.08300
C1903       C  0.60612438  0.28326267  0.90162528     0.62000
H1904       H  0.56412922  0.27650407  0.95186945     0.12700
H1905       H  0.64014350  0.14596305  0.92590022     0.12700
C1906       C  0.59130191  0.13482638  0.97027274     0.62300
F1907       F  0.57930420  0.31518647  0.91103667    -0.22900
F1908       F  0.59295395  0.27113075  0.87468436    -0.20200
F1909       F  0.64548883  0.29823107  0.89956576    -0.19900
F1910       F  0.56368643  0.13765058  0.99278857    -0.20000
F1911       F  0.62950569  0.11984833  0.98067303    -0.20300
F1912       F  0.57636135  0.10699930  0.95058579    -0.22900
C1913       C  0.88883236  0.19840515  0.93200567    -0.05800
C1914       C  0.87003396  0.23747655  0.92652341     0.00100
C1915       C  0.88005552  0.27079318  0.94529416    -0.08400
C1916       C  0.90716529  0.26302473  0.96879498    -0.05800
C1917       C  0.92539128  0.22395623  0.97413391     0.00100
C1918       C  0.91537277  0.19069655  0.95577681    -0.08300
C1919       C  0.93239521  0.14691799  0.96153870     0.62000
H1920       H  0.88296724  0.17373881  0.91712326     0.12700
H1921       H  0.91654596  0.28815505  0.98229103     0.12700
C1922       C  0.86298126  0.31467259  0.94107034     0.62300
F1923       F  0.91726338  0.11901868  0.94197725    -0.22900
F1924       F  0.92076805  0.13567422  0.98878555    -0.20200
F1925       F  0.97532759  0.14359382  0.95969511    -0.19900
F1926       F  0.82031945  0.31587076  0.94398629    -0.20000
F1927       F  0.87363649  0.32850295  0.91425650    -0.20300
F1928       F  0.87843030  0.34177155  0.96114894    -0.22900
C1929       C  0.85405376  0.47901925  0.27629408    -0.05800
C1930       C  0.85233764  0.48947650  0.30517764     0.00100
C1931       C  0.83042219  0.04077151  0.29404186    -0.08400
C1932       C  0.79397972  0.03531264  0.27716044    -0.05800
C1933       C  0.77687866  0.48515970  0.27114601     0.00100
C1934       C  0.81824874  0.47549147  0.25890144    -0.08300
C1935       C  0.82759699  0.46106453  0.22796614     0.62000
H1936       H  0.88496671  0.47322968  0.26746167     0.12700
H1937       H  0.77435943  0.06194214  0.27152271     0.12700
C1938       C  0.83974543  0.08355683  0.30485152     0.62300
F1939       F  0.86949522  0.46256681  0.22118090    -0.22900
F1940       F  0.80679352  0.48509568  0.20786129    -0.20200
F1941       F  0.81778934  0.42049971  0.22470401    -0.19900
F1942       F  0.87461027  0.09714713  0.29127326    -0.20000
F1943       F  0.84661928  0.08271686  0.33419179    -0.20300
F1944       F  0.80700839  0.11182839  0.29951327    -0.22900
C1945       C  0.66090832  0.97632764  0.25930231    -0.05800
C1946       C  0.69677849  0.99521725  0.27122498     0.00100
C1947       C  0.67983238  0.52901276  0.28947512    -0.08400
C1948       C  0.64027583  0.52920495  0.30317310    -0.05800
C1949       C  0.61360557  0.00085586  0.29678858     0.00100
C1950       C  0.61981499  0.98159988  0.26988777    -0.08300
C1951       C  0.58357111  0.97126978  0.25022521     0.62000
H1952       H  0.66402824  0.95868020  0.23978075     0.12700
H1953       H  0.63344966  0.55110058  0.32044296     0.12700
C1954       C  0.70520736  0.56544250  0.29826862     0.62300
F1955       F  0.59641609  0.94736692  0.22683323    -0.22900
F1956       F  0.56447819  0.00723445  0.24003646    -0.20200
F1957       F  0.54911611  0.45012321  0.26383090    -0.17100
F1958       F  0.73181810  0.06926639  0.31043385    -0.20000
F1959       F  0.71142348  0.56516212  0.32769648    -0.20300
F1960       F  0.68289335  0.60145954  0.29117378    -0.22900
C1961       C  0.77308684  0.03911841  0.21322027    -0.05800
C1962       C  0.73553328  0.02942707  0.22752669     0.00100
C1963       C  0.70093076  0.05880926  0.22198836    -0.08400
C1964       C  0.70837786  0.09832080  0.21137516    -0.05800
C1965       C  0.74585938  0.10784401  0.19885413     0.00100
C1966       C  0.77865185  0.07698370  0.19888587    -0.08300
C1967       C  0.81953821  0.08395746  0.18394704     0.62000
H1968       H  0.79960894  0.01773110  0.21467175     0.12700
H1969       H  0.68288570  0.12150305  0.21052437     0.12700
C1970       C  0.65586245  0.04793897  0.21819307     0.62300
F1971       F  0.84597689  0.04899343  0.18395159    -0.22900
F1972       F  0.83978075  0.11512041  0.19776939    -0.20200
F1973       F  0.81180630  0.09478501  0.15569925    -0.19900
F1974       F  0.63555350  0.05324291  0.24392141    -0.20000
F1975       F  0.65351234  0.00881489  0.20692567    -0.20300
F1976       F  0.63463862  0.07329783  0.19862762    -0.22900
C1977       C  0.73569128  0.44204882  0.20686106    -0.05800
C1978       C  0.73516467  0.44547226  0.23707815     0.00100
C1979       C  0.73613716  0.40682965  0.25271950    -0.08400
C1980       C  0.74095147  0.36902053  0.23745474    -0.05800
C1981       C  0.74235943  0.36643660  0.20759259     0.00100
C1982       C  0.73872570  0.40401643  0.19183673    -0.08300
C1983       C  0.73981485  0.40508383  0.15911608     0.62000
H1984       H  0.73535885  0.46989363  0.19458761     0.12700
H1985       H  0.74439249  0.34041450  0.24912743     0.12700
C1986       C  0.73669917  0.40220580  0.28543960     0.62300
F1987       F  0.73816904  0.44481761  0.14864240    -0.22900
F1988       F  0.70576718  0.38584254  0.14786202    -0.20200
F1989       F  0.77645763  0.38572404  0.14928058    -0.19900
F1990       F  0.72074332  0.36516698  0.29329610    -0.20000
F1991       F  0.71280244  0.43197568  0.29965852    -0.20300
F1992       F  0.77739453  0.40239544  0.29533200    -0.22900
C1993       C  0.73478904  0.48965932  0.25212122    -0.02500
C1994       C  0.95619365  0.71430864  0.01428775     0.02300
C1995       C  0.96257215  0.70444482  0.98484043     0.02200
C1996       C  0.50604907  0.68663222  0.97422921    -0.18300
C1997       C  0.54032752  0.69719885  0.99106603     0.02300
C1998       C  0.53265378  0.70731261  0.02033507     0.02200
C1999       C  0.49157841  0.71372588  0.02982718    -0.18300
H2000       H  0.48631343  0.72389304  0.05182818     0.04300
H2001       H  0.51123999  0.67900779  0.95172075     0.04300
C2002       C  0.73466030  0.48272318  0.75311719    -0.02500
C2003       C  0.50896925  0.76876249  0.75182059    -0.02500
C2004       C  0.73598088  0.94221648  0.01714106     0.02300
C2005       C  0.73845667  0.93873511  0.98714137     0.02200
C2006       C  0.70111559  0.48010698  0.97302806    -0.18300
C2007       C  0.70581212  0.51680274  0.98810378     0.02300
C2008       C  0.71492072  0.51535591  0.01807816     0.02200
C2009       C  0.71933802  0.47678371  0.03143595    -0.18300
H2010       H  0.72577745  0.47530642  0.05429625     0.04300
H2011       H  0.69390684  0.48108184  0.95029277     0.04300
O2012       O  0.83047320  0.76354807  0.88981724    -0.80100
O2013       O  0.70223881  0.66052683  0.83119273    -0.80200
O2014       O  0.75923291  0.67721805  0.92601881    -0.80200
O2015       O  0.83062247  0.71414850  0.81702444    -0.80100
O2016       O  0.73291138  0.65292942  0.88566289    -0.80200
O2017       O  0.83658808  0.77764293  0.83262093    -0.80200
O2018       O  0.76772018  0.66000945  0.81845771    -0.80100
O2019       O  0.81980923  0.69748558  0.88845825    -0.80200
C2020       C  0.84305926  0.72661269  0.89471670     1.09500
C2021       C  0.73378200  0.64198803  0.81955395     1.09400
C2022       C  0.74367808  0.64795452  0.91237825     1.09600
C2023       C  0.85230975  0.74532336  0.82015612     1.09400
O2024       O  0.75212256  0.81662755  0.83418268    -0.80100
O2025       O  0.65619322  0.68804742  0.87948587    -0.80200
O2026       O  0.76937461  0.75781737  0.92087114    -0.80200
O2027       O  0.70711299  0.72579774  0.79964244    -0.80100
O2028       O  0.67587735  0.74649750  0.83951782    -0.80200
O2029       O  0.74664054  0.80361067  0.89037897    -0.80200
O2030       O  0.77258554  0.78019626  0.79653345    -0.80100
O2031       O  0.69791037  0.72671995  0.90489143    -0.80200
Co2032     Co  0.78883165  0.78720892  0.86133427     1.51500
Co2033     Co  0.70700214  0.70407446  0.86251135     1.51700
Co2034     Co  0.75981077  0.71069141  0.89341200     1.51600
Co2035     Co  0.76904422  0.72024028  0.81086085     1.51500
O2036       O  0.75960829  0.73375874  0.85352449    -1.42100
C2037       C  0.76046196  0.81474895  0.80796803     1.09500
C2038       C  0.66327737  0.70838090  0.90228483     1.09600
C2039       C  0.75462686  0.79380835  0.91587890     1.09500
C2040       C  0.67548335  0.74311729  0.81232814     1.09500
O2041       O  0.83617084  0.79207572  0.17292914    -0.80100
O2042       O  0.74203443  0.65899939  0.11794009    -0.80200
O2043       O  0.77580719  0.67184962  0.18942479    -0.80200
O2044       O  0.81697746  0.70503954  0.11331280    -0.80100
O2045       O  0.71231593  0.66512166  0.17406871    -0.80200
O2046       O  0.83189984  0.77014746  0.11551919    -0.80200
O2047       O  0.75319190  0.68926684  0.07682515    -0.80100
O2048       O  0.83381783  0.73083791  0.19163178    -0.80200
C2049       C  0.85393746  0.76246220  0.18656754     1.09500
C2050       C  0.74657474  0.65684290  0.09021423     1.09400
C2051       C  0.74439140  0.65014658  0.18725970     1.09600
C2052       C  0.84031960  0.73325445  0.10663801     1.09400
O2053       O  0.74439147  0.80876034  0.11700194    -0.80100
O2054       O  0.67971333  0.74882625  0.16491149    -0.80200
O2055       O  0.76990225  0.79381609  0.20908860    -0.80200
O2056       O  0.69464923  0.73667909  0.10378927    -0.80100
O2057       O  0.66376899  0.68801952  0.12662687    -0.80200
O2058       O  0.74835778  0.82216226  0.16963545    -0.80200
O2059       O  0.76873378  0.76866245  0.08442045    -0.80100
O2060       O  0.71043011  0.73327398  0.20582399    -0.80200
Co2061     Co  0.78867763  0.79514484  0.14419454     1.51500
Co2062     Co  0.71363891  0.70769216  0.14257730     1.51700
Co2063     Co  0.77201685  0.73242413  0.19592013     1.51600
Co2064     Co  0.75774959  0.72076082  0.11094314     1.51500
O2065       O  0.76370882  0.74095448  0.15226796    -1.42100
C2066       C  0.75548146  0.80422526  0.09181417     1.09500
C2067       C  0.67806893  0.74614776  0.19185343     1.09600
C2068       C  0.75486964  0.82550598  0.19575096     1.09500
C2069       C  0.66321286  0.71359842  0.10623850     1.09500
O2070       O  0.57140040  0.50899345  0.65949781    -0.80100
O2071       O  0.00172813  0.95091808  0.61348571    -0.80200
O2072       O  0.48892215  0.96828902  0.70799718    -0.80200
O2073       O  0.54340021  0.02410333  0.59506762    -0.80100
O2074       O  0.00769381  0.93618101  0.67006888    -0.80200
O2075       O  0.58043405  0.56502741  0.61631812    -0.80200
O2076       O  0.47516647  0.98764797  0.58385802    -0.80100
O2077       O  0.54836976  0.02684666  0.70030469    -0.80200
C2078       C  0.57498476  0.51337829  0.68646935     1.09500
C2079       C  0.98949565  0.95978022  0.58846504     1.09400
C2080       C  0.00284722  0.93760242  0.69677856     1.09600
C2081       C  0.57128939  0.54227453  0.59499719     1.09400
O2082       O  0.50086414  0.59765140  0.61747161    -0.80100
O2083       O  0.92095855  0.96631619  0.67808731    -0.80200
O2084       O  0.97401423  0.59336067  0.68492420    -0.80200
O2085       O  0.91405163  0.54757412  0.61806925    -0.80100
O2086       O  0.91548496  0.98275511  0.62087866    -0.80200
O2087       O  0.54014417  0.59330426  0.66915417    -0.80200
O2088       O  0.96611073  0.57482842  0.57681550    -0.80100
O2089       O  0.91684016  0.53228143  0.68905782    -0.80200
Co2090     Co  0.53372654  0.54850611  0.63835869     1.51500
Co2091     Co  0.96375988  0.96231783  0.64584992     1.51700
Co2092     Co  0.48090913  0.52857827  0.69394329     1.51600
Co2093     Co  0.47638298  0.53848798  0.61124254     1.51500
O2094       O  0.48479771  0.51597257  0.65103774    -1.42100
C2095       C  0.48584427  0.60295339  0.59184163     1.09500
C2096       C  0.90421153  0.99758862  0.69111046     1.09600
C2097       C  0.50988407  0.60938905  0.68389033     1.09500
C2098       C  0.90032409  0.01847840  0.61457151     1.09500
O2099       O  0.53402084  0.58817969  0.32725988    -0.80100
O2100       O  0.92058611  0.98854460  0.38581655    -0.80200
O2101       O  0.91198952  0.52765751  0.31502841    -0.80200
O2102       O  0.00087061  0.56801497  0.42104718    -0.80100
O2103       O  0.91455718  0.97538342  0.32791307    -0.80200
O2104       O  0.50592585  0.59650400  0.38141786    -0.80200
O2105       O  0.93433092  0.54295378  0.39784865    -0.80100
O2106       O  0.97027275  0.58801499  0.31312926    -0.80200
C2107       C  0.50191814  0.60342458  0.31438352     1.09500
C2108       C  0.91232423  0.02315548  0.39819723     1.09400
C2109       C  0.89856584  0.00716725  0.31538407     1.09600
C2110       C  0.50333664  0.59831011  0.40882416     1.09400
O2111       O  0.58374630  0.56318919  0.37490883    -0.80100
O2112       O  0.00121619  0.93971278  0.32952170    -0.80200
O2113       O  0.53929281  0.02010515  0.29723328    -0.80200
O2114       O  0.48975847  0.97705792  0.42249384    -0.80100
O2115       O  0.00686771  0.95013928  0.38355904    -0.80200
O2116       O  0.56554317  0.50537616  0.33538690    -0.80200
O2117       O  0.55889918  0.01624293  0.40188089    -0.80100
O2118       O  0.47668867  0.96218693  0.29486142    -0.80200
Co2119     Co  0.53276264  0.54651437  0.35869135     1.51500
Co2120     Co  0.96282390  0.96754806  0.35599551     1.51700
Co2121     Co  0.47775444  0.02292123  0.30871862     1.51600
Co2122     Co  0.49525631  0.02201355  0.39579896     1.51500
O2123       O  0.48696687  0.01543829  0.35233586    -1.42100
C2124       C  0.58473286  0.53581119  0.39427413     1.09500
C2125       C  0.99205246  0.93769129  0.30368100     1.09600
C2126       C  0.56623647  0.50965059  0.30839573     1.09500
C2127       C  0.99858420  0.95259386  0.40970920     1.09500
C2128       C  0.00471427  0.81990498  0.51276158     0.02300
C2129       C  0.01773602  0.81546654  0.48407111     0.02200
C2130       C  0.02064122  0.77614564  0.47151584    -0.18300
C2131       C  0.00814483  0.74147719  0.48605720     0.02300
C2132       C  0.99300721  0.74633378  0.51462631     0.02200
C2133       C  0.99130305  0.78567769  0.52727081    -0.18300
H2134       H  0.98103220  0.78946220  0.54934008     0.04300
H2135       H  0.03001756  0.77295204  0.44921246     0.04300
C2136       C  0.77885557  0.52225214  0.51675101     0.02300
C2137       C  0.78350762  0.51164431  0.48740973     0.02200
C2138       C  0.75557642  0.02177383  0.47184804    -0.18300
C2139       C  0.70776362  0.51339048  0.48224589     0.02300
C2140       C  0.70308376  0.51899306  0.51233551     0.02200
C2141       C  0.73885907  0.52683796  0.52839341    -0.18300
H2142       H  0.73582915  0.53413629  0.55108749     0.04300
H2143       H  0.75852194  0.01841772  0.44869476     0.04300
C2144       C  0.01279208  0.76804992  0.25137064    -0.02500
C2145       C  0.96287918  0.87621149  0.27904143    -0.05800
C2146       C  0.99792033  0.89616689  0.28917586     0.00100
C2147       C  0.53900300  0.86733934  0.28782444    -0.08400
C2148       C  0.54126299  0.82875151  0.27391641    -0.05800
C2149       C  0.00489723  0.81209661  0.26679760     0.00100
C2150       C  0.96469638  0.83341576  0.27205462    -0.08300
C2151       C  0.92284372  0.81350274  0.27383215     0.62000
H2152       H  0.93270355  0.89264040  0.28057505     0.12700
H2153       H  0.57241188  0.81581258  0.27073823     0.12700
C2154       C  0.58016847  0.88089520  0.30033248     0.62300
F2155       F  0.89530381  0.83085447  0.25401233    -0.22900
F2156       F  0.90607656  0.82147087  0.30072358    -0.20200
F2157       F  0.92542992  0.77143693  0.26981461    -0.19900
F2158       F  0.59502209  0.85170486  0.31976272    -0.20000
F2159       F  0.57732364  0.91821825  0.31447467    -0.20300
F2160       F  0.60907023  0.88327719  0.27856251    -0.22900
C2161       C  0.52554419  0.68484776  0.26006009    -0.05800
C2162       C  0.50927140  0.72266916  0.27191924     0.00100
C2163       C  0.99137644  0.72409402  0.30056723    -0.08400
C2164       C  0.98556705  0.68389517  0.31138490    -0.05800
C2165       C  0.50371855  0.64338394  0.29936695     0.00100
C2166       C  0.52432687  0.64628195  0.27313496    -0.08300
C2167       C  0.54573242  0.60857984  0.25905930     0.62000
H2168       H  0.54350465  0.68554142  0.24091897     0.12700
H2169       H  0.96948096  0.68040156  0.33158209     0.12700
C2170       C  0.98247400  0.75657352  0.32401192     0.62300
F2171       F  0.56390041  0.61740881  0.23311922    -0.22900
F2172       F  0.51686100  0.57914638  0.25401799    -0.20200
F2173       F  0.57695766  0.59287121  0.27694151    -0.19900
F2174       F  0.94007182  0.76007975  0.32917601    -0.20000
F2175       F  0.99686700  0.79457882  0.31921687    -0.20300
F2176       F  0.00214241  0.74367900  0.34916654    -0.22900
C2177       C  0.97563283  0.70299203  0.44668238    -0.05800
C2178       C  0.51170640  0.69757999  0.47045913     0.00100
C2179       C  0.54193054  0.66462189  0.46980128    -0.08400
C2180       C  0.53735292  0.63280177  0.44937259    -0.05800
C2181       C  0.50686527  0.63548851  0.42731320     0.00100
C2182       C  0.97448453  0.67152110  0.42579837    -0.08300
C2183       C  0.94050891  0.67588811  0.40314854     0.62000
H2184       H  0.95287636  0.72871697  0.44542259     0.12700
H2185       H  0.55896172  0.60613762  0.44963210     0.12700
C2186       C  0.58118787  0.66548709  0.48812260     0.62300
F2187       F  0.90217662  0.68184492  0.41633028    -0.22900
F2188       F  0.93855334  0.64230037  0.38498592    -0.20200
F2189       F  0.94755861  0.70995123  0.38681879    -0.19900
F2190       F  0.60558922  0.62966771  0.48510149    -0.20000
F2191       F  0.57162089  0.67006045  0.51672466    -0.20300
F2192       F  0.60436708  0.69807792  0.47993841    -0.22900
C2193       C  0.54301862  0.91222993  0.45230261    -0.05800
C2194       C  0.00441605  0.91754618  0.42808320     0.00100
C2195       C  0.98226753  0.88192786  0.42292614    -0.08400
C2196       C  0.98736216  0.85007656  0.44244651    -0.05800
C2197       C  0.01728931  0.85084809  0.46455187     0.00100
C2198       C  0.55402664  0.87784056  0.46888577    -0.08300
C2199       C  0.59288603  0.87973888  0.48732623     0.62000
H2200       H  0.55911325  0.94049084  0.45556353     0.12700
H2201       H  0.96831121  0.82364805  0.44028753     0.12700
C2202       C  0.95383503  0.87709478  0.39692691     0.62300
F2203       F  0.62576776  0.89058002  0.47035933    -0.22900
F2204       F  0.60400942  0.84235678  0.49959848    -0.20200
F2205       F  0.58685269  0.90926720  0.50867434    -0.19900
F2206       F  0.97705216  0.87780789  0.37208099    -0.20000
F2207       F  0.92330594  0.90841919  0.39622682    -0.20300
F2208       F  0.93415226  0.84023635  0.39721980    -0.22900
C2209       C  0.63625479  0.56383041  0.42700181    -0.05800
C2210       C  0.62073297  0.52926417  0.41338155     0.00100
C2211       C  0.63533414  0.48926659  0.42161523    -0.08400
C2212       C  0.66033318  0.48514859  0.44634072    -0.05800
C2213       C  0.67413458  0.51978119  0.46097648     0.00100
C2214       C  0.66490168  0.55962742  0.44972803    -0.08300
C2215       C  0.68750460  0.59701915  0.46022055     0.62000
H2216       H  0.62589794  0.59412927  0.41959851     0.12700
H2217       H  0.67133013  0.45491357  0.45349574     0.12700
C2218       C  0.62805548  0.45174580  0.40285471     0.62300
F2219       F  0.67188937  0.63289789  0.44748049    -0.22900
F2220       F  0.72933433  0.59208141  0.45341541    -0.20200
F2221       F  0.68900947  0.11261166  0.48913252    -0.19900
F2222       F  0.63684446  0.46036589  0.37456415    -0.20000
F2223       F  0.59706671  0.94506385  0.40655921    -0.20300
F2224       F  0.66246663  0.92346840  0.41675640    -0.22900
C2225       C  0.87104910  0.98816427  0.43448816    -0.05800
C2226       C  0.88151806  0.02557259  0.42218880     0.00100
C2227       C  0.86617788  0.06289936  0.43532829    -0.08400
C2228       C  0.84118816  0.06109210  0.46001296    -0.05800
C2229       C  0.83070134  0.02362705  0.47201066     0.00100
C2230       C  0.84590014  0.98642907  0.45888566    -0.08300
C2231       C  0.83379139  0.94408409  0.46817885     0.62000
H2232       H  0.88249279  0.95938378  0.42497482     0.12700
H2233       H  0.82186553  0.57574296  0.47116717     0.12700
C2234       C  0.87673782  0.59337426  0.43019585     0.62300
F2235       F  0.80902299  0.92741551  0.44708508    -0.22900
F2236       F  0.81221778  0.94485071  0.49372647    -0.20200
F2237       F  0.86369222  0.40667897  0.47220073    -0.19900
F2238       F  0.85141905  0.13612650  0.43638083    -0.20000
F2239       F  0.86957917  0.59877037  0.40113324    -0.20300
F2240       F  0.91836981  0.59745024  0.43662532    -0.22900
C2241       C  0.63608513  0.04590861  0.52376723    -0.05800
C2242       C  0.66375176  0.51506128  0.52914398     0.00100
C2243       C  0.66478172  0.49376809  0.55571423    -0.08400
C2244       C  0.63544135  0.50526106  0.57693023    -0.05800
C2245       C  0.60138590  0.53243644  0.57117687     0.00100
C2246       C  0.59470055  0.54476060  0.54211714    -0.08300
C2247       C  0.56215077  0.07051551  0.53295433     0.62000
H2248       H  0.63426804  0.06220354  0.50375252     0.12700
H2249       H  0.63797012  0.49099390  0.59768021     0.12700
C2250       C  0.69601847  0.45854346  0.56246607     0.62300
F2251       F  0.55232280  0.56790016  0.50219248    -0.22900
F2252       F  0.54747497  0.60235390  0.54373553    -0.20200
F2253       F  0.53000610  0.04518300  0.53827596    -0.19900
F2254       F  0.72413732  0.47110501  0.58297809    -0.20000
F2255       F  0.72863246  0.95300666  0.53908044    -0.20300
F2256       F  0.67512608  0.42587785  0.57319188    -0.22900
C2257       C  0.86164108  0.06067533  0.57803647    -0.05800
C2258       C  0.86679358  0.02268401  0.59227245     0.00100
C2259       C  0.84586588  0.98837152  0.58107167    -0.08400
C2260       C  0.82493363  0.99244882  0.55462527    -0.05800
C2261       C  0.82150888  0.02979685  0.53981358     0.00100
C2262       C  0.83853885  0.06505259  0.55235955    -0.08300
C2263       C  0.83413816  0.10692606  0.53831443     0.62000
H2264       H  0.87729416  0.08695933  0.58648271     0.12700
H2265       H  0.80070097  0.45861806  0.54669928     0.12700
C2266       C  0.84565724  0.94711872  0.59615462     0.62300
F2267       F  0.82292032  0.62958351  0.55465056    -0.22900
F2268       F  0.79063760  0.60245654  0.51704305    -0.20200
F2269       F  0.86062978  0.10729774  0.51510405    -0.19900
F2270       F  0.83010548  0.45435827  0.62607981    -0.20000
F2271       F  0.88345967  0.92546249  0.59230910    -0.20300
F2272       F  0.81465219  0.92299420  0.58544979    -0.22900
C2273       C  0.95206617  0.65148312  0.55093079    -0.05800
C2274       C  0.48659038  0.64320052  0.57682909     0.00100
C2275       C  0.51951712  0.67103203  0.57979862    -0.08400
C2276       C  0.52124059  0.70294598  0.55994290    -0.05800
C2277       C  0.49324587  0.70754835  0.53683954     0.00100
C2278       C  0.95302113  0.68454886  0.53169860    -0.08300
C2279       C  0.91772909  0.68957617  0.51002409     0.62000
H2280       H  0.92778996  0.62974313  0.54821248     0.12700
H2281       H  0.54699664  0.72324381  0.56086514     0.12700
C2282       C  0.55737696  0.66466433  0.59953932     0.62300
F2283       F  0.87996273  0.68841517  0.52407935    -0.22900
F2284       F  0.92076984  0.65757016  0.49026702    -0.20200
F2285       F  0.91761372  0.72646730  0.49561749    -0.19900
F2286       F  0.58374465  0.63378120  0.58852939    -0.20000
F2287       F  0.54622873  0.65502294  0.62692155    -0.20300
F2288       F  0.57992947  0.69979291  0.60183155    -0.22900
C2289       C  0.97942672  0.89232441  0.52138473    -0.05800
C2290       C  0.00650075  0.85897822  0.52904453     0.00100
C2291       C  0.54340964  0.85807455  0.55424047    -0.08400
C2292       C  0.53651312  0.89300391  0.57148156    -0.05800
C2293       C  0.99774871  0.92915429  0.56499808     0.00100
C2294       C  0.97589173  0.92842229  0.53832278    -0.08300
C2295       C  0.94861486  0.96454136  0.52767127     0.62000
H2296       H  0.96023226  0.88940233  0.50234106     0.12700
H2297       H  0.55504712  0.89561581  0.59091311     0.12700
C2298       C  0.57770072  0.82711698  0.56387933     0.62300
F2299       F  0.93354170  0.95789681  0.50019703    -0.22900
F2300       F  0.97134404  0.99939265  0.52701981    -0.20200
F2301       F  0.91500651  0.97118774  0.54554287    -0.19900
F2302       F  0.61449703  0.84707934  0.56746700    -0.20000
F2303       F  0.58542122  0.79508172  0.54464416    -0.20300
F2304       F  0.56678825  0.81076598  0.58990780    -0.22900
C2305       C  0.63317836  0.73729954  0.23444368    -0.05800
C2306       C  0.63725168  0.75419711  0.20715797     0.00100
C2307       C  0.60273921  0.77802098  0.19587306    -0.08400
C2308       C  0.56458052  0.78000007  0.21099348    -0.05800
C2309       C  0.55891672  0.76041282  0.23767552     0.00100
C2310       C  0.59674850  0.74330319  0.25101048    -0.08300
C2311       C  0.60340123  0.73386746  0.28278366     0.62000
H2312       H  0.65992994  0.72062319  0.24384262     0.12700
H2313       H  0.53870342  0.79718229  0.20147622     0.12700
C2314       C  0.60561618  0.80180868  0.16809705     0.62300
F2315       F  0.60473922  0.69181949  0.28699939    -0.22900
F2316       F  0.57372156  0.75267082  0.30019046    -0.20200
F2317       F  0.64120693  0.74838430  0.29187049    -0.19900
F2318       F  0.60749092  0.77470662  0.14506095    -0.20000
F2319       F  0.64076186  0.82480697  0.16861448    -0.20300
F2320       F  0.57137566  0.82879459  0.16400032    -0.22900
C2321       C  0.91996568  0.72834970  0.20594405    -0.05800
C2322       C  0.89831317  0.76500878  0.19767187     0.00100
C2323       C  0.92067647  0.80186078  0.19917155    -0.08400
C2324       C  0.96024301  0.80094544  0.21319482    -0.05800
C2325       C  0.97920383  0.76471324  0.22546195     0.00100
C2326       C  0.96222212  0.72752905  0.21482988    -0.08300
C2327       C  0.98896170  0.69329729  0.20050322     0.62000
H2328       H  0.90606910  0.69932871  0.20115245     0.12700
H2329       H  0.97561653  0.82949820  0.21612265     0.12700
C2330       C  0.90263299  0.84266363  0.18766873     0.62300
F2331       F  0.97402832  0.68547178  0.17317015    -0.22900
F2332       F  0.98729343  0.65729774  0.21578687    -0.20200
F2333       F  0.02967372  0.70398223  0.19692916    -0.19900
F2334       F  0.86521581  0.85346015  0.20101629    -0.20000
F2335       F  0.89626535  0.83933662  0.15836612    -0.20300
F2336       F  0.92909501  0.87441280  0.19241515    -0.22900
C2337       C  0.70158062  0.60193272  0.07377347    -0.05800
C2338       C  0.74117097  0.61833417  0.07357553     0.00100
C2339       C  0.77195764  0.60124044  0.05460881    -0.08400
C2340       C  0.76229375  0.56744438  0.03713185    -0.05800
C2341       C  0.72207303  0.55249021  0.03612646     0.00100
C2342       C  0.69133655  0.56943283  0.05515831    -0.08300
C2343       C  0.64794043  0.55315524  0.05584936     0.62000
H2344       H  0.67821242  0.61580171  0.08803327     0.12700
H2345       H  0.78649443  0.55198167  0.02446554     0.12700
C2346       C  0.81527602  0.61761440  0.05351883     0.62300
F2347       F  0.62263573  0.57474838  0.07521382    -0.22900
F2348       F  0.65002131  0.51242546  0.06393901    -0.20200
F2349       F  0.62970773  0.55646021  0.02899464    -0.19900
F2350       F  0.83224916  0.61681979  0.08073453    -0.20000
F2351       F  0.81330219  0.65749794  0.04348436    -0.20300
F2352       F  0.84163987  0.59418657  0.03568557    -0.22900
C2353       C  0.78056978  0.88984877  0.04109287    -0.05800
C2354       C  0.74023055  0.90630790  0.03556495     0.00100
C2355       C  0.70596510  0.89291295  0.05108236    -0.08400
C2356       C  0.71291004  0.85936317  0.06916667    -0.05800
C2357       C  0.75254582  0.84003307  0.07273235     0.00100
C2358       C  0.78756990  0.86016338  0.06231246    -0.08300
C2359       C  0.82907832  0.86106669  0.07820393     0.62000
H2360       H  0.80692512  0.90413853  0.03152401     0.12700
H2361       H  0.68787996  0.84989964  0.08226584     0.12700
C2362       C  0.66300237  0.91501962  0.04969923     0.62300
F2363       F  0.84054889  0.90137471  0.08127636    -0.22900
F2364       F  0.86019151  0.83969823  0.06320524    -0.20200
F2365       F  0.82660360  0.84569627  0.10552119    -0.19900
F2366       F  0.64975329  0.91904086  0.02154132    -0.20000
F2367       F  0.66464000  0.95368463  0.06206130    -0.20300
F2368       F  0.63340954  0.89409729  0.06436914    -0.22900
C2369       C  0.75419375  0.56184390  0.96589341    -0.05800
C2370       C  0.71247219  0.55265278  0.96963507     0.00100
C2371       C  0.68218476  0.56872216  0.94967842    -0.08400
C2372       C  0.69446467  0.59709408  0.92906773    -0.05800
C2373       C  0.73557007  0.60982553  0.92797442     0.00100
C2374       C  0.76625356  0.59016302  0.94555453    -0.08300
C2375       C  0.81188771  0.59772907  0.94216600     0.62000
H2376       H  0.77786639  0.54494000  0.97815489     0.12700
H2377       H  0.67115598  0.61121956  0.91483202     0.12700
C2378       C  0.63689550  0.55718133  0.94904777     0.62300
F2379       F  0.83677570  0.56752300  0.95551361    -0.22900
F2380       F  0.82002718  0.63533558  0.95441041    -0.20200
F2381       F  0.82200356  0.59735766  0.91331969    -0.19900
F2382       F  0.61098226  0.59245759  0.94920407    -0.20000
F2383       F  0.62629366  0.53370055  0.97216932    -0.20300
F2384       F  0.62959548  0.53524130  0.92409549    -0.22900
C2385       C  0.71740181  0.86810542  0.97471401    -0.05800
C2386       C  0.74690814  0.89842175  0.97236105     0.00100
C2387       C  0.78200254  0.89081436  0.95430787    -0.08400
C2388       C  0.78343321  0.85560337  0.93669183    -0.05800
C2389       C  0.75297532  0.82639194  0.93807694     0.00100
C2390       C  0.72029228  0.83164792  0.95815973    -0.08300
C2391       C  0.68752031  0.80008536  0.96086140     0.62000
H2392       H  0.69102867  0.87389606  0.98870473     0.12700
H2393       H  0.80870283  0.85090342  0.92146116     0.12700
C2394       C  0.81881362  0.91828517  0.95263038     0.62300
F2395       F  0.65956378  0.80996745  0.98269942    -0.22900
F2396       F  0.70651991  0.76195889  0.96665909    -0.20200
F2397       F  0.66548160  0.79807949  0.93542105    -0.19900
F2398       F  0.81869570  0.94834711  0.97379609    -0.20000
F2399       F  0.81871974  0.93692685  0.92607975    -0.20300
F2400       F  0.85549962  0.89444985  0.95567395    -0.22900
C2401       C  0.51715525  0.69122165  0.74334413    -0.05800
C2402       C  0.51247408  0.73015196  0.72931913     0.00100
C2403       C  0.51238354  0.72729351  0.69807806    -0.08400
C2404       C  0.50900934  0.68768099  0.68461021    -0.05800
C2405       C  0.51278193  0.65032411  0.69947783     0.00100
C2406       C  0.51809355  0.65246532  0.72945604    -0.08300
C2407       C  0.02368435  0.61602947  0.74519058     0.62000
H2408       H  0.01928800  0.69304314  0.76596289     0.12700
H2409       H  0.50360879  0.68544383  0.66184828     0.12700
C2410       C  0.51964562  0.76244159  0.67752533     0.62300
F2411       F  0.53092204  0.62198757  0.77593286    -0.22900
F2412       F  0.56176330  0.59287247  0.73736448    -0.20200
F2413       F  0.99030640  0.59101146  0.74220357    -0.19900
F2414       F  0.56075342  0.77274041  0.67947340    -0.20000
F2415       F  0.99067558  0.80080439  0.68350346    -0.20300
F2416       F  0.51302337  0.75135884  0.64912589    -0.22900
C2417       C  0.54136158  0.82839956  0.72467477    -0.05800
C2418       C  0.00520636  0.81825963  0.74144506     0.00100
C2419       C  0.97418041  0.85190419  0.74749424    -0.08400
C2420       C  0.97481698  0.88887282  0.73160429    -0.05800
C2421       C  0.00714452  0.89810477  0.71337930     0.00100
C2422       C  0.54233367  0.86645708  0.71019803    -0.08300
C2423       C  0.57857746  0.87459607  0.69056461     0.62000
H2424       H  0.56783653  0.80758622  0.72211243     0.12700
H2425       H  0.94944143  0.91200998  0.73399561     0.12700
C2426       C  0.94045150  0.85584126  0.77064753     0.62300
F2427       F  0.61192706  0.84659898  0.69456225    -0.22900
F2428       F  0.59240469  0.91352942  0.69582792    -0.20200
F2429       F  0.56579007  0.87173907  0.66224397    -0.19900
F2430       F  0.94460806  0.82865010  0.79271337    -0.20000
F2431       F  0.90175485  0.85293308  0.75780353    -0.20300
F2432       F  0.94134251  0.89427098  0.78376308    -0.22900
C2433       C  0.58881353  0.75003766  0.75511952    -0.05800
C2434       C  0.55225429  0.76511493  0.77026851     0.00100
C2435       C  0.56148164  0.78161879  0.79858063    -0.08400
C2436       C  0.60074870  0.77080369  0.81161997    -0.05800
C2437       C  0.63566985  0.75544248  0.79605246     0.00100
C2438       C  0.62989080  0.75081499  0.76607716    -0.08300
C2439       C  0.66447444  0.75183853  0.74386634     0.62000
H2440       H  0.58661683  0.74185429  0.73264382     0.12700
H2441       H  0.60519969  0.77721333  0.83421375     0.12700
C2442       C  0.53506014  0.81442832  0.81475873     0.62300
F2443       F  0.65280241  0.78013473  0.72297872    -0.22900
F2444       F  0.67030481  0.71381698  0.73070729    -0.20200
F2445       F  0.70186941  0.76402509  0.75499856    -0.19900
F2446       F  0.50023022  0.79872666  0.82664649    -0.20000
F2447       F  0.52440192  0.84656262  0.79682896    -0.20300
F2448       F  0.55698490  0.83145282  0.83730353    -0.22900
C2449       C  0.96869420  0.74206440  0.79694350    -0.05800
C2450       C  0.96599170  0.76029046  0.76933526     0.00100
C2451       C  0.92396474  0.76342135  0.75727449    -0.08400
C2452       C  0.88921888  0.76031078  0.77564858    -0.05800
C2453       C  0.89276161  0.74696271  0.80389560     0.00100
C2454       C  0.93322496  0.73378705  0.81374289    -0.08300
C2455       C  0.94108444  0.70922900  0.84081255     0.62000
H2456       H  0.99902936  0.73288341  0.80561450     0.12700
H2457       H  0.85782612  0.76685221  0.76768925     0.12700
C2458       C  0.91322609  0.76736222  0.72540766     0.62300
F2459       F  0.96416211  0.67336771  0.83412841    -0.22900
F2460       F  0.90464615  0.69821393  0.85345592    -0.20200
F2461       F  0.96359945  0.73181043  0.86022945    -0.19900
F2462       F  0.92681510  0.73210326  0.71099158    -0.20000
F2463       F  0.92996144  0.80112098  0.71367297    -0.20300
F2464       F  0.87061961  0.77176336  0.72041331    -0.22900
C2465       C  0.81512205  0.00925570  0.74607811    -0.05800
C2466       C  0.78315849  0.98324721  0.73571473     0.00100
C2467       C  0.79711121  0.95719593  0.71182387    -0.08400
C2468       C  0.83594846  0.96356870  0.69814787    -0.05800
C2469       C  0.86307805  0.99413261  0.70662470     0.00100
C2470       C  0.85207122  0.01755827  0.73140894    -0.08300
C2471       C  0.87967948  0.05057609  0.74352418     0.62000
H2472       H  0.81259403  0.02305300  0.76705707     0.12700
H2473       H  0.84554045  0.94358606  0.68038155     0.12700
C2474       C  0.77569250  0.92019354  0.69985154     0.62300
F2475       F  0.85822680  0.57239663  0.76498295    -0.22900
F2476       F  0.87638378  0.58513022  0.72000932    -0.20200
F2477       F  0.91924720  0.03368541  0.74928200    -0.19900
F2478       F  0.77989265  0.40833869  0.67377181    -0.20000
F2479       F  0.73757866  0.91473040  0.71140844    -0.20300
F2480       F  0.80065231  0.88508606  0.70501347    -0.22900
C2481       C  0.69252858  0.49497288  0.70566151    -0.05800
C2482       C  0.69200871  0.49142850  0.73594097     0.00100
C2483       C  0.65164846  0.50041859  0.74932893    -0.08400
C2484       C  0.61575621  0.50683792  0.73194582    -0.05800
C2485       C  0.61633093  0.50510999  0.70192378     0.00100
C2486       C  0.65589418  0.49847713  0.68853713    -0.08300
C2487       C  0.66020364  0.49455048  0.65630812     0.62000
H2488       H  0.72200637  0.49377187  0.69482454     0.12700
H2489       H  0.58603316  0.51362679  0.74219612     0.12700
C2490       C  0.64377667  0.50623194  0.78157387     0.62300
F2491       F  0.70104660  0.48580953  0.64788023    -0.22900
F2492       F  0.64682027  0.53118614  0.64383320    -0.20200
F2493       F  0.64394777  0.96477567  0.64564174    -0.19900
F2494       F  0.65101772  0.54613789  0.78981451    -0.20000
F2495       F  0.67108995  0.98463784  0.79815774    -0.20300
F2496       F  0.60759224  0.00905065  0.78834761    -0.22900
C2497       C  0.73865355  0.56425001  0.81983639    -0.05800
C2498       C  0.73092549  0.60093981  0.80474925     0.00100
C2499       C  0.72505779  0.59847875  0.77494313    -0.08400
C2500       C  0.72768356  0.55994193  0.76111325    -0.05800
C2501       C  0.73425150  0.52130799  0.77535384     0.00100
C2502       C  0.74057791  0.52429162  0.80640458    -0.08300
C2503       C  0.75374338  0.48898280  0.82655088     0.62000
H2504       H  0.74486484  0.56767392  0.84257959     0.12700
H2505       H  0.72525213  0.55984435  0.73796178     0.12700
C2506       C  0.71489874  0.63695041  0.75773029     0.62300
F2507       F  0.74826799  0.50016870  0.85511185    -0.22900
F2508       F  0.79572755  0.47903776  0.82313029    -0.20200
F2509       F  0.73087416  0.45469556  0.82263514    -0.19900
F2510       F  0.74765564  0.66295989  0.75943249    -0.20000
F2511       F  0.67926212  0.65651297  0.76888703    -0.20300
F2512       F  0.70754231  0.62834998  0.72902074    -0.22900
C2513       C  0.77878902  0.92323814  0.78067418    -0.05800
C2514       C  0.73995952  0.93651100  0.76803510     0.00100
C2515       C  0.70900284  0.90426698  0.76617741    -0.08400
C2516       C  0.71907517  0.86494633  0.77837412    -0.05800
C2517       C  0.75683312  0.85435394  0.79164269     0.00100
C2518       C  0.78687613  0.88447908  0.79358753    -0.08300
C2519       C  0.82728584  0.87606654  0.81005283     0.62000
H2520       H  0.80368188  0.94422090  0.78089440     0.12700
H2521       H  0.69638536  0.84146141  0.77897054     0.12700
C2522       C  0.66489322  0.90660178  0.75252293     0.62300
F2523       F  0.85354055  0.90849066  0.80870795    -0.22900
F2524       F  0.84807985  0.84162115  0.79871519    -0.20200
F2525       F  0.81867562  0.86942415  0.83863588    -0.19900
F2526       F  0.66431553  0.92163658  0.72513863    -0.20000
F2527       F  0.63732833  0.92906578  0.76968313    -0.20300
F2528       F  0.64825015  0.86825749  0.74963275    -0.22900
C2529       C  0.60148579  0.68207647  0.08499870    -0.05800
C2530       C  0.62781775  0.71522286  0.08519684     0.00100
C2531       C  0.62050865  0.74694458  0.06465986    -0.08400
C2532       C  0.58971562  0.74280716  0.04346391    -0.05800
C2533       C  0.56526330  0.70875779  0.04262541     0.00100
C2534       C  0.56949433  0.67874674  0.06461895    -0.08300
C2535       C  0.53912035  0.64472548  0.06800385     0.62000
H2536       H  0.60582043  0.65863414  0.10120296     0.12700
H2537       H  0.58446533  0.76607747  0.02718519     0.12700
C2538       C  0.64393491  0.78560021  0.06532578     0.62300
F2539       F  0.55336499  0.61522529  0.08736332    -0.22900
F2540       F  0.53205440  0.62521636  0.04205628    -0.20200
F2541       F  0.50208473  0.66162916  0.07859254    -0.19900
F2542       F  0.68465280  0.77650447  0.05708043    -0.20000
F2543       F  0.64205040  0.80168786  0.09291007    -0.20300
F2544       F  0.62697172  0.81503190  0.04679757    -0.22900
C2545       C  0.86128464  0.74933376  0.05747298    -0.05800
C2546       C  0.86885575  0.72537962  0.08200566     0.00100
C2547       C  0.89733131  0.69095776  0.08014561    -0.08400
C2548       C  0.91857582  0.68330389  0.05397804    -0.05800
C2549       C  0.91646480  0.71174591  0.03112826     0.00100
C2550       C  0.88519737  0.74413963  0.03234762    -0.08300
C2551       C  0.87577218  0.77250355  0.00732331     0.62000
H2552       H  0.83585155  0.77223913  0.05803082     0.12700
H2553       H  0.94133948  0.65772633  0.05247527     0.12700
C2554       C  0.90947680  0.66605251  0.10665652     0.62300
F2555       F  0.84538795  0.80285433  0.01371343    -0.22900
F2556       F  0.86073732  0.74987954  0.98464456    -0.20200
F2557       F  0.91136949  0.79170513  0.99956817    -0.19900
F2558       F  0.93732803  0.63344639  0.10028479    -0.20000
F2559       F  0.87535004  0.64993451  0.11945029    -0.20300
F2560       F  0.92797512  0.69167958  0.12622799    -0.22900
C2561       C  0.57028544  0.73413274  0.95074936    -0.05800
C2562       C  0.57838163  0.70723061  0.97410161     0.00100
C2563       C  0.61737825  0.68440983  0.97484125    -0.08400
C2564       C  0.64501400  0.68798756  0.95157643    -0.05800
C2565       C  0.63365624  0.71000433  0.92668021     0.00100
C2566       C  0.59582732  0.73382698  0.92627195    -0.08300
C2567       C  0.58180895  0.75739746  0.89967931     0.62000
H2568       H  0.54094059  0.75213887  0.95044745     0.12700
H2569       H  0.67552190  0.67239797  0.95232285     0.12700
C2570       C  0.63044264  0.65607241  0.99932234     0.62300
F2571       F  0.54438483  0.77964038  0.90392501    -0.22900
F2572       F  0.57638654  0.72999784  0.87723367    -0.20200
F2573       F  0.61154760  0.78457355  0.89214664    -0.19900
F2574       F  0.59802866  0.63216212  0.00696506    -0.20000
F2575       F  0.64301730  0.67894240  0.02251787    -0.20300
F2576       F  0.66397685  0.62991394  0.99203459    -0.22900
C2577       C  0.88725821  0.67973024  0.92530193    -0.05800
C2578       C  0.88100642  0.71866060  0.91260444     0.00100
C2579       C  0.90655737  0.75077171  0.92160966    -0.08400
C2580       C  0.92957910  0.74555439  0.94698168    -0.05800
C2581       C  0.93065365  0.70848785  0.96224115     0.00100
C2582       C  0.91267711  0.67390660  0.94980247    -0.08300
C2583       C  0.92045388  0.63140659  0.96244284     0.62000
H2584       H  0.87101344  0.65420153  0.91652226     0.12700
H2585       H  0.94866013  0.77017422  0.95441539     0.12700
C2586       C  0.91184506  0.79023549  0.90509016     0.62300
F2587       F  0.90565087  0.60126222  0.94457564    -0.22900
F2588       F  0.90090845  0.62983286  0.98875841    -0.20200
F2589       F  0.96272455  0.62250507  0.96613382    -0.19900
F2590       F  0.88845793  0.82211924  0.91788744    -0.20000
F2591       F  0.90037808  0.78679230  0.87656948    -0.20300
F2592       F  0.95339581  0.79991579  0.90548788    -0.22900
C2593       C  0.84637107  0.96765536  0.28970496    -0.05800
C2594       C  0.85652440  0.00563977  0.30122167     0.00100
C2595       C  0.81301916  0.49415983  0.31848686    -0.08400
C2596       C  0.77623426  0.49146471  0.30147230    -0.05800
C2597       C  0.78263654  0.99637946  0.26653596     0.00100
C2598       C  0.81654666  0.96520157  0.26768587    -0.08300
C2599       C  0.83255026  0.93708286  0.24310611     0.62000
H2600       H  0.86809763  0.94142214  0.29292715     0.12700
H2601       H  0.74674267  0.49484545  0.31221616     0.12700
C2602       C  0.81030704  0.50231068  0.35052222     0.62300
F2603       F  0.87523028  0.94042209  0.23990854    -0.22900
F2604       F  0.81576073  0.94707573  0.21679262    -0.20200
F2605       F  0.82609048  0.89654198  0.24935881    -0.19900
F2606       F  0.82917483  0.53851750  0.35721281    -0.20000
F2607       F  0.83057569  0.47023969  0.36508637    -0.20300
F2608       F  0.76939891  0.50584741  0.35988333    -0.22900
C2609       C  0.65720069  0.47157080  0.26089606    -0.05800
C2610       C  0.69118310  0.49664205  0.26894738     0.00100
C2611       C  0.68987722  0.01271191  0.29988752    -0.08400
C2612       C  0.64870311  0.01461311  0.31134206    -0.05800
C2613       C  0.60757264  0.50562798  0.29325370     0.00100
C2614       C  0.61534418  0.48029269  0.26910439    -0.08300
C2615       C  0.58022602  0.46793410  0.24912701     0.62000
H2616       H  0.66160026  0.44708013  0.24542071     0.12700
H2617       H  0.64267594  0.02941433  0.33189693     0.12700
C2618       C  0.72228821  0.03089894  0.31991090     0.62300
F2619       F  0.59416986  0.44050675  0.22793606    -0.22900
F2620       F  0.56307479  0.50269570  0.23589131    -0.20200
F2621       F  0.55445101  0.95007409  0.26458255    -0.17100
F2622       F  0.74343921  0.56645223  0.28557874    -0.20000
F2623       F  0.75731583  0.00511460  0.32273914    -0.20300
F2624       F  0.70765863  0.03668442  0.34767621    -0.22900
C2625       C  0.77270031  0.55410611  0.23289178    -0.05800
C2626       C  0.73708111  0.52931931  0.23099859     0.00100
C2627       C  0.70473245  0.54574283  0.21145049    -0.08400
C2628       C  0.70928048  0.58455639  0.19806422    -0.05800
C2629       C  0.74464717  0.60786044  0.20095987     0.00100
C2630       C  0.77804342  0.59088765  0.21781421    -0.08300
C2631       C  0.81960461  0.61148705  0.22098472     0.62000
H2632       H  0.79708698  0.54660288  0.24786460     0.12700
H2633       H  0.68377466  0.59806429  0.18545577     0.12700
C2634       C  0.66201012  0.52836765  0.20613843     0.62300
F2635       F  0.84890370  0.58789393  0.23640047    -0.22900
F2636       F  0.81370194  0.64877613  0.23529700    -0.20200
F2637       F  0.83644476  0.61747471  0.19416174    -0.19900
F2638       F  0.63544621  0.54186728  0.22780114    -0.20000
F2639       F  0.66340979  0.48631530  0.20390573    -0.20300
F2640       F  0.64452806  0.54211844  0.18046840    -0.22900
C2641       C  0.73498222  0.94289953  0.20746008    -0.05800
C2642       C  0.73825726  0.94729191  0.23752165     0.00100
C2643       C  0.73926263  0.90934190  0.25386746    -0.08400
C2644       C  0.74368049  0.87090729  0.23916933    -0.05800
C2645       C  0.74627770  0.86756954  0.20933732     0.00100
C2646       C  0.74041518  0.90465653  0.19301136    -0.08300
C2647       C  0.74117218  0.90532156  0.16022848     0.62000
H2648       H  0.73017536  0.97016942  0.19476067     0.12700
H2649       H  0.74513350  0.84248007  0.25107532     0.12700
C2650       C  0.73349556  0.90674396  0.28642820     0.62300
F2651       F  0.73753194  0.94484241  0.14940497    -0.22900
F2652       F  0.70814802  0.88428429  0.14919110    -0.20200
F2653       F  0.77863891  0.88773390  0.15041446    -0.19900
F2654       F  0.69177572  0.91230037  0.29321931    -0.20000
F2655       F  0.75556478  0.93510701  0.30119820    -0.20300
F2656       F  0.74713433  0.86865291  0.29686765    -0.22900
loop_ 
_geom_bond_atom_site_label_1 
_geom_bond_atom_site_label_2 
_geom_bond_distance 
_geom_bond_site_symmetry_2 
_ccdc_geom_bond_type 
C1          C618   1.607       .  S
C1          C634   1.633   1_565  S
C1         C1269   1.601       .  S
C1         C1314   1.592       .  S
C2            C3   1.422   1_554  A
C2         C1335   1.400       .  A
C2          C557   1.477       .  S
C3         C1332   1.392       .  A
C3          C589   1.488       .  S
C4            C5   1.396       .  A
C4         C1331   1.399   1_455  A
C4            H9   1.087   1_455  S
C5            C6   1.420   1_556  A
C5          C570   1.485       .  S
C6            C7   1.400       .  A
C6          C541   1.489       .  S
C7         C1330   1.396   1_455  A
C7            H8   1.085       .  S
C10         C490   1.603       .  S
C10         C509   1.615   1_565  S
C10        C1138   1.650       .  S
C10        C1186   1.619       .  S
C11         C410   1.628       .  S
C11         C442   1.637       .  S
C11        C1754   1.613       .  S
C11        C1786   1.602   1_455  S
C12          C13   1.417   1_554  A
C12         C681   1.402       .  A
C12         C362   1.486       .  S
C13         C678   1.396       .  A
C13         C394   1.489       .  S
C14          C15   1.402   1_565  A
C14         C677   1.399       .  A
C14          H19   1.083       .  S
C15          C16   1.426   1_556  A
C15         C378   1.481       .  S
C16          C17   1.394   1_545  A
C16         C349   1.486       .  S
C17         C676   1.391       .  A
C17          H18   1.086       .  S
O20          C28   1.269       .  A
O20         Co40   2.016       .  S
O21          C29   1.265       .  A
O21         Co41   2.025       .  S
O22          C30   1.262       .  A
O22         Co42   1.876       .  S
O23          C31   1.264       .  A
O23         Co43   1.978       .  S
O24          C30   1.300       .  A
O24         Co41   2.110       .  S
O25          C31   1.283       .  A
O25         Co40   2.060       .  S
O26          C29   1.259       .  A
O26         Co43   1.999       .  S
O27          C28   1.270       .  A
O27         Co42   1.986       .  S
C28         C586   1.506       .  S
C29         C506   1.503       .  S
C30         C381   1.474       .  S
C31         C461   1.506       .  S
O32          C45   1.246       .  A
O32         Co40   1.947       .  S
O33          C46   1.265       .  A
O33         Co41   1.917       .  S
O34          C47   1.260       .  A
O34         Co42   2.006       .  S
O35          C48   1.285       .  A
O35         Co43   2.061       .  S
O36          C48   1.267       .  A
O36         Co41   1.981       .  S
O37          C47   1.254       .  A
O37         Co40   1.966       .  S
O38          C45   1.275       .  A
O38         Co43   2.062       .  S
O39          C46   1.288       .  A
O39         Co42   2.089       .  S
Co40         O44   2.045       .  S
Co41         O44   2.044       .  S
Co42         O44   2.023       .  S
Co43         O44   2.059       .  S
C45         C525   1.495       .  S
C46         C573   1.477       .  S
C47         C397   1.474       .  S
C48         C445   1.521       .  S
O49          C57   1.281       .  A
O49         Co69   2.062       .  S
O50          C58   1.306       .  A
O50         Co70   2.135       .  S
O51          C59   1.259       .  A
O51         Co71   1.994       .  S
O52          C60   1.259       .  A
O52         Co72   1.958       .  S
O53          C59   1.268       .  A
O53         Co70   2.028       .  S
O54          C60   1.274       .  A
O54         Co69   2.027       .  S
O55          C58   1.263       .  A
O55         Co72   1.876       .  S
O56          C57   1.262       .  A
O56         Co71   1.953       .  S
C57         C330   1.518       .  S
C58         C346   1.490       .  S
C59         C637   1.525       .  S
C60         C554   1.493       .  S
O61          C74   1.252       .  A
O61         Co69   1.959       .  S
O62          C75   1.270       .  A
O62         Co70   1.992       .  S
O63          C76   1.277       .  A
O63         Co71   2.071       .  S
O64          C77   1.294       .  A
O64         Co72   2.112       .  S
O65          C77   1.267       .  A
O65         Co70   1.885       .  S
O66          C76   1.240       .  A
O66         Co69   1.941       .  S
O67          C74   1.266       .  A
O67         Co72   2.031       .  S
O68          C75   1.281       .  A
O68         Co71   2.029       .  S
Co69         O73   2.037       .  S
Co70         O73   2.022       .  S
Co71         O73   2.051       .  S
Co72         O73   2.007       .  S
C74         C365   1.490       .  S
C75         C314   1.521       .  S
C76         C653   1.509       .  S
C77         C538   1.488       .  S
O78          C86   1.269       .  A
O78         Co98   1.988       .  S
O79          C87   1.255       .  A
O79         Co99   1.955       .  S
O80        C1416   1.280       .  A
O80        Co764   2.064       .  S
O81         C753   1.285       .  A
O81        Co765   2.091   1_455  S
O82          C88   1.248       .  A
O82         Co99   1.956       .  S
O83          C89   1.275       .  A
O83         Co98   1.929       .  S
O84        C1415   1.263       .  A
O84        Co765   2.020       .  S
O85         C750   1.280       .  A
O85        Co764   2.030   1_455  S
C86         C493   1.526       .  S
C86         O749   1.285       .  A
C87         C301   1.482       .  S
C87        O1412   1.262       .  A
C88         C429   1.502       .  S
C88        O1408   1.282       .  A
C89         C253   1.493       .  S
C89         O745   1.286       .  A
O90         C103   1.294   1_455  A
O90         Co98   2.116       .  S
O91         C104   1.280       .  A
O91         Co99   2.055       .  S
O92        C1433   1.267       .  A
O92       Co1428   2.004       .  S
O93         C770   1.266       .  A
O93       Co1429   1.963       .  S
O94         C106   1.274       .  A
O94         Co99   2.019       .  S
O95         C105   1.280       .  A
O95         Co98   2.053       .  S
O96        C1431   1.265       .  A
O96       Co1429   1.887       .  S
O97         C768   1.269   1_545  A
O97       Co1428   1.992       .  S
Co98        O102   2.040   1_455  S
Co99       O2094   2.035       .  S
Co100       O744   2.059   1_545  S
Co100       O749   2.041   1_655  S
Co100      O1420   1.999       .  S
Co100      O1425   1.989       .  S
Co100       O102   2.039       .  S
Co101       O745   2.090   1_655  S
Co101       O748   2.018   1_545  S
Co101      O1421   1.957       .  S
Co101      O1424   1.891       .  S
Co101       O102   2.012       .  S
O102      Co2091   2.043   1_545  S
C103        C282   1.501       .  S
C103       O1424   1.263       .  A
C104        C477   1.527       .  S
C104        O761   1.266       .  A
C105        C413   1.518       .  S
C105       O1420   1.265   1_455  A
C106        C266   1.492       .  S
C106        O757   1.265       .  A
O107        C115   1.270       .  A
O107       Co127   2.012       .  S
O108        C116   1.280       .  A
O108       Co128   2.047       .  S
O109        C781   1.264   1_545  A
O109      Co2121   1.972       .  S
O110       C1446   1.232       .  A
O110      Co2122   1.908       .  S
O111        C117   1.270       .  A
O111       Co128   2.016       .  S
O112        C118   1.281       .  A
O112       Co127   2.084       .  S
O113        C780   1.255       .  A
O113      Co2122   1.941       .  S
O114       C1443   1.263       .  A
O114      Co2121   1.998       .  S
C115        C173   1.491       .  S
C115       O1442   1.264   1_455  A
C116        C234   1.499       .  S
C116        O777   1.256       .  A
C117        C602   1.486       .  S
C117        O773   1.266       .  A
C118        C189   1.480       .  S
C118       O1438   1.230       .  A
O119        C132   1.272       .  A
O119       Co127   1.890       .  S
O120        C133   1.249       .  A
O120       Co128   1.956       .  S
O121        C798   1.278       .  A
O121       Co129   2.047   1_455  S
O122       C1463   1.237   1_655  A
O122       Co130   1.940       .  S
O123        C135   1.250       .  A
O123       Co128   1.968       .  S
O124        C134   1.269       .  A
O124       Co127   1.990       .  S
O125        C796   1.289       .  A
O125       Co130   2.055   1_455  S
O126       C1461   1.277       .  A
O126       Co129   2.072       .  S
Co127       O795   2.006   1_455  S
Co128      O1459   2.078       .  S
Co129      O2101   1.988       .  S
Co129      O2106   2.004       .  S
Co129       O131   2.068       .  S
Co130      O2102   1.911   1_655  S
Co130      O2105   1.943       .  S
Co130       O131   2.050       .  S
O131       Co791   2.013   1_655  S
O131      Co1456   2.080       .  S
C132        C218   1.459       .  S
C132        O789   1.291       .  A
C133        C154   1.507       .  S
C133       O1454   1.278       .  A
C134        C621   1.510       .  S
C134        O785   1.278       .  A
C135        C202   1.431       .  S
C135       O1450   1.235       .  A
C136        C137   1.405       .  A
C136        C141   1.395       .  A
C136        C298   1.473       .  S
C137        C138   1.398       .  A
C137        C205   1.470       .  S
C138        C139   1.396       .  A
C138        H143   1.086       .  S
C139        C140   1.423       .  A
C139       C1514   1.483       .  S
C140        C141   1.401       .  A
C140       C1613   1.484       .  S
C141        H142   1.086       .  S
C144        C145   1.414       .  A
C144        C149   1.399       .  A
C144        C933   1.474       .  S
C145        C810   1.394       .  A
C145        C901   1.480       .  S
C146        C809   1.393       .  A
C146        C811   1.394       .  A
C146        H151   1.087       .  S
C147        C148   1.418       .  A
C147        C810   1.397       .  A
C147        C221   1.468       .  S
C148        C149   1.400       .  A
C148        C250   1.500       .  S
C149        H150   1.085       .  S
C152        C157   1.605       .  S
C152        C333   1.617       .  S
C152       C1498   1.627       .  S
C152       C1645   1.622       .  S
C153        C154   1.404       .  A
C153        C158   1.425       .  A
C153        H160   1.085       .  S
C154       C1483   1.420       .  A
C155        C162   1.524       .  S
C155        C156   1.407       .  A
C155       C1482   1.419   1_455  A
C156       C1485   1.423       .  A
C156        H161   1.066       .  S
C157        C158   1.456       .  A
C157       C1484   1.422       .  A
C158        C159   1.526       .  S
C159        F163   1.381       .  S
C159        F164   1.384       .  S
C159        F165   1.376       .  S
C162        F166   1.383       .  S
C162        F167   1.376       .  S
C162        F168   1.383       .  S
C169        C170   1.432       .  A
C169        C174   1.407       .  A
C169        H176   1.072       .  S
C170       C1480   1.622       .  S
C170       C1499   1.459       .  A
C171        C178   1.533       .  S
C171        C172   1.426       .  A
C171       C1498   1.467       .  A
C172       C1501   1.394       .  A
C172        H177   1.086       .  S
C173        C174   1.404       .  A
C173       C1500   1.396   1_455  A
C174        C175   1.517       .  S
C175        F179   1.384       .  S
C175        F180   1.382       .  S
C175        F181   1.377       .  S
C178        F182   1.381       .  S
C178        F183   1.365       .  S
C178        F184   1.387       .  S
C185        C190   1.407       .  A
C185       C1514   1.408       .  A
C185        H192   1.085       .  S
C186        C187   1.408       .  A
C186       C1513   1.408   1_455  A
C186       C1467   1.482       .  S
C187        C194   1.518       .  S
C187        C188   1.410       .  A
C188        C189   1.414       .  A
C188        H193   1.083       .  S
C189       C1518   1.413   1_455  A
C190        C191   1.515       .  S
C190       C1517   1.413       .  A
C191        F195   1.382       .  S
C191        F196   1.380       .  S
C191        F197   1.380       .  S
C194        F198   1.379       .  S
C194        F199   1.375       .  S
C194        F200   1.383       .  S
C201        C206   1.399       .  A
C201       C1530   1.400       .  A
C201        H208   1.086       .  S
C202        C203   1.405       .  A
C202       C1529   1.397       .  A
C203        C210   1.523       .  S
C203        C204   1.386       .  A
C204        C205   1.404       .  A
C204        H209   1.083       .  S
C205       C1534   1.419       .  A
C206        C207   1.515       .  S
C206       C1533   1.421       .  A
C207        F211   1.384       .  S
C207        F212   1.379       .  S
C207        F213   1.384       .  S
C210        F214   1.382       .  S
C210        F215   1.378       .  S
C210        F216   1.383       .  S
C217        C218   1.397       .  A
C217        C222   1.399       .  A
C217        H224   1.083       .  S
C218        C219   1.415   1_545  A
C219        C226   1.521       .  S
C219        C220   1.403       .  A
C220        C221   1.400   1_565  A
C220        H225   1.083       .  S
C221        C222   1.420       .  A
C222        C223   1.522       .  S
C223        F227   1.385       .  S
C223        F228   1.381       .  S
C223        F893   1.382       .  S
C226        F230   1.384       .  S
C226        F895   1.374       .  S
C226        F896   1.384       .  S
F229        C887   1.382       .  S
F231        C890   1.374       .  S
F232        C890   1.384       .  S
C233        C234   1.409       .  A
C233        C238   1.406       .  A
C233        H240   1.079       .  S
C234        C235   1.425       .  A
C235        C906   1.513       .  S
C235        C236   1.408       .  A
C236        C237   1.400       .  A
C236        H905   1.081       .  S
C237        C238   1.413       .  A
C237        C809   1.479       .  S
C238        C239   1.519       .  S
C239        F243   1.382       .  S
C239        F244   1.381       .  S
C239        F909   1.385       .  S
H241        C900   1.080       .  S
C242        C899   1.514       .  S
C242        F247   1.383       .  S
C242        F248   1.379       .  S
C242        F910   1.385       .  S
F245        C903   1.385       .  S
F246        C906   1.385       .  S
C249        C914   1.399       .  A
C249        C918   1.408       .  A
C249        H256   1.077       .  S
C250        C251   1.424   1_545  A
C250        C913   1.400       .  A
C251        C258   1.518       .  S
C251        C252   1.404   1_565  A
C252        C253   1.397       .  A
C252        H257   1.078   1_545  S
C253        C254   1.424       .  A
C254        C919   1.506       .  S
C254        C913   1.410       .  A
C255        C918   1.508       .  S
C255        F261   1.376       .  S
C255        F923   1.384       .  S
C255        F924   1.369       .  S
C258        F262   1.383       .  S
C258        F264   1.384       .  S
C258        F927   1.384       .  S
F259        C919   1.383       .  S
F260        C919   1.368       .  S
F263        C922   1.383       .  S
C265        C266   1.410       .  A
C265        C270   1.407       .  A
C265        H272   1.084       .  S
C266        C267   1.424       .  A
C267        C274   1.519       .  S
C267        C268   1.402       .  A
C268        C269   1.401       .  A
C268        H937   1.084       .  S
C269        C270   1.415       .  A
C269        C808   1.474       .  S
C270        C271   1.518       .  S
C271        F277   1.380       .  S
C271        F939   1.384       .  S
C271        F940   1.381       .  S
H273        C932   1.084       .  S
C274        F279   1.383       .  S
C274        F280   1.385       .  S
C274        F942   1.380       .  S
F275        C935   1.384       .  S
F276        C935   1.381       .  S
F278        C938   1.378       .  S
C281        C286   1.408       .  A
C281       C1610   1.415       .  A
C281        H288   1.084       .  S
C282        C283   1.434   1_655  A
C282       C1609   1.417       .  A
C283        C290   1.528       .  S
C283        C284   1.403       .  A
C284        C285   1.401   1_455  A
C284        H289   1.085       .  S
C285       C1614   1.411       .  A
C285       C1468   1.486   1_655  S
C286        C287   1.516       .  S
C286       C1613   1.411       .  A
C287        F291   1.383       .  S
C287        F292   1.383       .  S
C287        F293   1.380       .  S
C290        F294   1.380       .  S
C290        F295   1.366       .  S
C290        F296   1.386       .  S
C297        C298   1.403       .  A
C297        C302   1.407       .  A
C297        H304   1.083       .  S
C298       C1627   1.415       .  A
C299        C306   1.524       .  S
C299        C300   1.392       .  A
C299       C1626   1.415       .  A
C300       C1629   1.408   1_455  A
C300        H305   1.085       .  S
C301        C302   1.421       .  A
C301       C1628   1.406       .  A
C302        C303   1.516       .  S
C303        F307   1.384       .  S
C303        F308   1.380       .  S
C303        F309   1.376       .  S
C306        F310   1.384       .  S
C306        F311   1.382       .  S
C306        F312   1.384       .  S
C313        C314   1.400       .  A
C313        C318   1.411       .  A
C313        H320   1.084       .  S
C314        C315   1.423       .  A
C315        C322   1.522       .  S
C315        C316   1.423       .  A
C316        C317   1.427       .  A
C316        H321   1.071       .  S
C317       C1480   1.620       .  S
C317        C318   1.458       .  A
C318        C319   1.532       .  S
C319        F323   1.384       .  S
C319        F324   1.369       .  S
C319        F325   1.385       .  S
C322        F326   1.382       .  S
C322        F327   1.384       .  S
C322        F328   1.385       .  S
C329        C330   1.406       .  A
C329        C334   1.407       .  A
C329        H336   1.084       .  S
C330        C331   1.421       .  A
C331        C338   1.517       .  S
C331        C332   1.425       .  A
C332        C333   1.431       .  A
C332        H337   1.082       .  S
C333        C334   1.436       .  A
C334        C335   1.519       .  S
C335        F339   1.388       .  S
C335        F340   1.379       .  S
C335        F341   1.378       .  S
C338        F342   1.383       .  S
C338        F343   1.383       .  S
C338        F344   1.385       .  S
C345        C346   1.405       .  A
C345        C350   1.408       .  A
C345        H352   1.083       .  S
C346        C347   1.420       .  A
C347        C354   1.514       .  S
C347        C348   1.406       .  A
C348        C349   1.403       .  A
C348        H353   1.081       .  S
C349        C350   1.419       .  A
C350        C351   1.517       .  S
C351        F355   1.383       .  S
C351        F356   1.383       .  S
C351        F357   1.380       .  S
C354        F358   1.380       .  S
C354        F359   1.379       .  S
C354        F360   1.385       .  S
C361        C362   1.401       .  A
C361        C366   1.405       .  A
C361        H368   1.083       .  S
C362        C363   1.416       .  A
C363        C370   1.518       .  S
C363        C364   1.403       .  A
C364        C365   1.406       .  A
C364        H369   1.084       .  S
C365        C366   1.417       .  A
C366        C367   1.506       .  S
C367        F371   1.382       .  S
C367        F372   1.369       .  S
C367        F373   1.384       .  S
C370        F374   1.383       .  S
C370        F375   1.380       .  S
C370        F376   1.385       .  S
C377        C378   1.394       .  A
C377        C382   1.397       .  A
C377        H384   1.076       .  S
C378        C379   1.423       .  A
C379        C386   1.520       .  S
C379        C380   1.409       .  A
C380        C381   1.400       .  A
C380        H385   1.082       .  S
C381        C382   1.414       .  A
C382        C383   1.509       .  S
C383        F387   1.384       .  S
C383        F388   1.381       .  S
C383        F389   1.381       .  S
C386        F390   1.384       .  S
C386        F391   1.381       .  S
C386        F392   1.380   1_545  S
C393        C394   1.404       .  A
C393        C398   1.405       .  A
C393        H400   1.082       .  S
C394        C395   1.425       .  A
C395        C402   1.525       .  S
C395        C396   1.396       .  A
C396        C397   1.399       .  A
C396        H401   1.085       .  S
C397        C398   1.413       .  A
C398        C399   1.509       .  S
C399        F403   1.384       .  S
C399        F404   1.383       .  S
C399        F405   1.373       .  S
C402        F406   1.383       .  S
C402        F407   1.382       .  S
C402        F408   1.385       .  S
C409        C410   1.435       .  A
C409        C414   1.412       .  A
C409       H1744   1.080       .  S
C410        C411   1.461       .  A
C411        C418   1.530       .  S
C411        C412   1.436       .  A
C412        C413   1.405       .  A
C412        H417   1.076       .  S
C413        C414   1.407       .  A
C414       C1743   1.520       .  S
C415       C1742   1.521       .  S
C415        F421   1.382       .  S
C415       F1747   1.385       .  S
C415       F1748   1.382       .  S
H416       C1737   1.080       .  S
C418        F422   1.379       .  S
C418        F424   1.385       .  S
C418       F1751   1.371   1_455  S
F419       C1743   1.385       .  S
F420       C1743   1.383       .  S
F423       C1746   1.371       .  S
C425        C430   1.422       .  A
C425       C1754   1.424       .  A
C425        H432   1.075       .  S
C426       C1339   1.613       .  S
C426        C427   1.469       .  A
C426       C1753   1.425       .  A
C427        C434   1.528       .  S
C427        C428   1.413       .  A
C428        C429   1.381       .  A
C428        H433   1.086       .  S
C429       C1758   1.415       .  A
C430        C431   1.518       .  S
C430       C1757   1.415       .  A
C431        F435   1.384       .  S
C431        F436   1.381       .  S
C431        F437   1.383       .  S
C434        F438   1.363       .  S
C434        F439   1.378       .  S
C434        F440   1.388       .  S
C441        C442   1.434       .  A
C441        C446   1.409       .  A
C441        H448   1.075       .  S
C442        C443   1.454       .  A
C443        C450   1.529       .  S
C443        C444   1.432       .  A
C444        C445   1.407       .  A
C444        H449   1.081       .  S
C445        C446   1.411       .  A
C446        C447   1.518       .  S
C447        F451   1.385       .  S
C447        F452   1.382       .  S
C447        F453   1.383       .  S
C450        F454   1.371       .  S
C450        F455   1.376       .  S
C450        F456   1.386       .  S
C457        C458   1.425       .  A
C457        C462   1.432       .  A
C457        H464   1.079       .  S
C458       C1339   1.607       .  S
C458        C459   1.458       .  A
C459        C466   1.529       .  S
C459        C460   1.413       .  A
C460        C461   1.388       .  A
C460        H465   1.083       .  S
C461        C462   1.416       .  A
C462        C463   1.512       .  S
C463        F467   1.384       .  S
C463        F468   1.383       .  S
C463        F469   1.383       .  S
C466        F470   1.378       .  S
C466        F471   1.367       .  S
C466        F472   1.386       .  S
C473        C474   1.438       .  A
C473        C478   1.417       .  A
C473        H480   1.068       .  S
C474        C674   1.647       .  S
C474        C475   1.455       .  A
C475        C482   1.518       .  S
C475        C476   1.428       .  A
C476        C477   1.403       .  A
C476        H481   1.083       .  S
C477        C478   1.418       .  A
C478        C479   1.528       .  S
C479        F485   1.384       .  S
C479       F1147   1.385       .  S
C479       F1148   1.383       .  S
C482        F487   1.358       .  S
C482        F488   1.383       .  S
C482       F1150   1.385       .  S
F483       C1143   1.385       .  S
F484       C1143   1.383       .  S
F486       C1146   1.384       .  S
C489        C490   1.419       .  A
C489        C494   1.424       .  A
C489        H496   1.072       .  S
C490        C491   1.458   1_565  A
C491        C498   1.531       .  S
C491        C492   1.411       .  A
C492        C493   1.396       .  A
C492        H497   1.081       .  S
C493        C494   1.427   1_545  A
C494        C495   1.513       .  S
C495        F499   1.384       .  S
C495        F500   1.381   1_565  S
C495       F1165   1.384       .  S
C498        F502   1.381       .  S
C498       F1167   1.368   1_545  S
C498       F1168   1.387       .  S
F501       C1159   1.381       .  S
F503       C1162   1.370       .  S
F504       C1162   1.386       .  S
C505        C506   1.407       .  A
C505        C510   1.435       .  A
C505        H512   1.082       .  S
C506        C507   1.412       .  A
C507        C514   1.522       .  S
C507        C508   1.401       .  A
C508        C509   1.430       .  A
C508        H513   1.084       .  S
C509        C510   1.456       .  A
C510        C511   1.531   1_545  S
C511        F515   1.385   1_565  S
C511        F516   1.379       .  S
C511        F517   1.376       .  S
C514        F518   1.384       .  S
C514        F519   1.377       .  S
C514        F520   1.384       .  S
C521        C522   1.423       .  A
C521        C526   1.410       .  A
C521        H528   1.077       .  S
C522        C674   1.615       .  S
C522        C523   1.483       .  A
C523        C530   1.549       .  S
C523        C524   1.425       .  A
C524        C525   1.386       .  A
C524        H529   1.083       .  S
C525        C526   1.405       .  A
C526        C527   1.512       .  S
C527        F531   1.384       .  S
C527        F532   1.377       .  S
C527        F533   1.382       .  S
C530        F534   1.370       .  S
C530        F535   1.375       .  S
C530        F536   1.387       .  S
C537        C538   1.400       .  A
C537        C542   1.396       .  A
C537        H544   1.084       .  S
C538        C539   1.423       .  A
C539        C546   1.509       .  S
C539        C540   1.404       .  A
C540        C541   1.397       .  A
C540        H545   1.080       .  S
C541        C542   1.426       .  A
C542        C543   1.520       .  S
C543        F547   1.384       .  S
C543        F548   1.382       .  S
C543        F549   1.383       .  S
C546        F550   1.374       .  S
C546        F551   1.375       .  S
C546        F552   1.383   1_554  S
C553        C554   1.405       .  A
C553        C558   1.407       .  A
C553        H560   1.084       .  S
C554        C555   1.415       .  A
C555        C562   1.524       .  S
C555        C556   1.409       .  A
C556        C557   1.408       .  A
C556        H561   1.083       .  S
C557        C558   1.421       .  A
C558        C559   1.523       .  S
C559        F563   1.383       .  S
C559        F564   1.382       .  S
C559        F565   1.381       .  S
C562        F566   1.384       .  S
C562        F567   1.375       .  S
C562        F568   1.383       .  S
C569        C570   1.410       .  A
C569        C574   1.406       .  A
C569        H576   1.084       .  S
C570        C571   1.418       .  A
C571        C578   1.517       .  S
C571        C572   1.406       .  A
C572        C573   1.403       .  A
C572        H577   1.080       .  S
C573        C574   1.412       .  A
C574        C575   1.520       .  S
C575        F579   1.384       .  S
C575        F580   1.382       .  S
C575        F581   1.380       .  S
C578        F582   1.377       .  S
C578        F583   1.383       .  S
C578        F584   1.383       .  S
C585        C586   1.403       .  A
C585        C590   1.409       .  A
C585        H592   1.079       .  S
C586        C587   1.433       .  A
C587        C594   1.519       .  S
C587        C588   1.410       .  A
C588        C589   1.396       .  A
C588        H593   1.079       .  S
C589        C590   1.423       .  A
C590        C591   1.525       .  S
C591        F595   1.382       .  S
C591        F596   1.383       .  S
C591        F597   1.380       .  S
C594        F598   1.374       .  S
C594        F599   1.383       .  S
C594        F600   1.385       .  S
C601        C602   1.385       .  A
C601        C606   1.408       .  A
C601        H608   1.083       .  S
C602       C1267   1.407       .  A
C603        C610   1.515   1_565  S
C603        C604   1.415       .  A
C603       C1266   1.404       .  A
C604       C1269   1.426       .  A
C604        H609   1.072       .  S
C605        C665   1.609       .  S
C605        C606   1.464       .  A
C605       C1268   1.426       .  A
C606        C607   1.537       .  S
C607        F611   1.386       .  S
C607        F612   1.374       .  S
C607        F613   1.378       .  S
C610        F614   1.382       .  S
C610        F615   1.383   1_545  S
C610        F616   1.384       .  S
C617        C618   1.432       .  A
C617        C622   1.406       .  A
C617        H624   1.076       .  S
C618       C1283   1.448   1_565  A
C619        C626   1.524       .  S
C619        C620   1.422       .  A
C619       C1282   1.451       .  A
C620       C1285   1.402       .  A
C620        H625   1.085       .  S
C621        C622   1.414   1_545  A
C621       C1284   1.406       .  A
C622        C623   1.518       .  S
C623        F627   1.383       .  S
C623        F628   1.383       .  S
C623       F1293   1.371       .  S
C626        F631   1.384       .  S
C626        F632   1.384       .  S
C626       F1294   1.366       .  S
F629       C1287   1.367       .  S
F630       C1290   1.369       .  S
C633        C634   1.432       .  A
C633        C638   1.415       .  A
C633        H640   1.068       .  S
C634        C635   1.459       .  A
C635        C642   1.527       .  S
C635        C636   1.428       .  A
C636        C637   1.402       .  A
C636        H641   1.082       .  S
C637        C638   1.418       .  A
C638        C639   1.526       .  S
C639        F643   1.385       .  S
C639        F644   1.383       .  S
C639        F645   1.384       .  S
C642        F646   1.380       .  S
C642        F647   1.371   1_545  S
C642        F648   1.386       .  S
C649        C650   1.412       .  A
C649        C654   1.414       .  A
C649        H656   1.076       .  S
C650        C665   1.592       .  S
C650        C651   1.458       .  A
C651        C658   1.532       .  S
C651        C652   1.417       .  A
C652        C653   1.393       .  A
C652        H657   1.083       .  S
C653        C654   1.431       .  A
C654        C655   1.526       .  S
C655        F659   1.385       .  S
C655        F660   1.383       .  S
C655        F661   1.384       .  S
C658        F662   1.386       .  S
C658        F663   1.371       .  S
C658        F664   1.382       .  S
C665       C1282   1.608       .  S
C665       C1298   1.631       .  S
C666        C667   1.422   1_554  A
C666       C1999   1.400       .  A
C666       C1221   1.503       .  S
C667       C1996   1.401       .  A
C667       C1253   1.474       .  S
C668       C1995   1.401   1_455  A
C668        C669   1.397       .  A
C668        H673   1.087       .  S
C669        C670   1.421   1_556  A
C669       C1234   1.513       .  S
C670        C671   1.401   1_455  A
C670       C1205   1.469       .  S
C671       C1994   1.400       .  A
C671        H672   1.084       .  S
C674       C1154   1.593       .  S
C674       C1173   1.616       .  S
C675       C1074   1.628       .  S
C675       C2418   1.618       .  S
C675       C1106   1.630       .  S
C675       C2450   1.604   1_455  S
C676        C677   1.403   1_554  A
C676       C1026   1.461       .  S
C677       C1058   1.484       .  S
C678        C679   1.399       .  A
C678        H683   1.083       .  S
C679        C680   1.426   1_556  A
C679       C1042   1.490       .  S
C680        C681   1.403       .  A
C680       C1013   1.491       .  S
C681        H682   1.084       .  S
O684        C692   1.273       .  A
O684       Co704   2.021       .  S
O685        C693   1.271       .  A
O685       Co705   2.028       .  S
O686        C694   1.259       .  A
O686       Co706   1.875       .  S
O687        C695   1.266       .  A
O687       Co707   1.998       .  S
O688        C694   1.302       .  A
O688       Co705   2.132       .  S
O689        C695   1.276       .  A
O689       Co704   2.041       .  S
O690        C693   1.263       .  A
O690       Co707   1.995       .  S
O691        C692   1.265       .  A
O691       Co706   1.966       .  S
C692       C1250   1.495       .  S
C693       C1170   1.498       .  S
C694       C1045   1.484       .  S
C695       C1125   1.508       .  S
O696        C709   1.251       .  A
O696       Co704   1.949       .  S
O697        C710   1.269       .  A
O697       Co705   1.913       .  S
O698        C711   1.261       .  A
O698       Co706   2.013       .  S
O699        C712   1.281       .  A
O699       Co707   2.053       .  S
O700        C712   1.272       .  A
O700       Co705   1.993       .  S
O701        C711   1.250       .  A
O701       Co704   1.961       .  S
O702        C709   1.282       .  A
O702       Co707   2.073       .  S
O703        C710   1.293       .  A
O703       Co706   2.104       .  S
Co704       O708   2.044       .  S
Co705       O708   2.037       .  S
Co706       O708   2.018       .  S
Co707       O708   2.054       .  S
C709       C1189   1.501       .  S
C710       C1237   1.487       .  S
C711       C1061   1.464       .  S
C712       C1109   1.525       .  S
O713        C721   1.267       .  A
O713       Co733   2.013       .  S
O714        C722   1.302       .  A
O714       Co734   2.122       .  S
O715        C723   1.258       .  A
O715       Co735   1.978       .  S
O716        C724   1.257       .  A
O716       Co736   1.950       .  S
O717        C723   1.274       .  A
O717       Co734   2.030       .  S
O718        C724   1.282       .  A
O718       Co733   2.068       .  S
O719        C722   1.260       .  A
O719       Co736   1.896       .  S
O720        C721   1.265       .  A
O720       Co735   1.991       .  S
C721        C994   1.512       .  S
C722       C1010   1.487       .  S
C723       C1301   1.517       .  S
C724       C1218   1.491       .  S
O725        C738   1.233       .  A
O725       Co733   1.934       .  S
O726        C739   1.263       .  A
O726       Co734   1.986       .  S
O727        C740   1.280       .  A
O727       Co735   2.069       .  S
O728        C741   1.293       .  A
O728       Co736   2.083       .  S
O729        C741   1.270       .  A
O729       Co734   1.893       .  S
O730        C740   1.239       .  A
O730       Co733   1.933       .  S
O731        C738   1.260       .  A
O731       Co736   2.055       .  S
O732        C739   1.279       .  A
O732       Co735   2.047       .  S
Co733       O737   2.017       .  S
Co734       O737   2.030       .  S
Co735       O737   2.071       .  S
Co736       O737   2.043       .  S
C738       C1029   1.478       .  S
C739        C978   1.523       .  S
C740       C1317   1.511       .  S
C741       C1202   1.490       .  S
O742        C750   1.269       .  A
O742       Co762   1.986       .  S
O743        C751   1.259       .  A
O743       Co763   1.965       .  S
O744       C2080   1.279   1_655  A
O746        C752   1.252       .  A
O746       Co763   1.958       .  S
O747        C753   1.273       .  A
O747       Co762   1.919       .  S
O748       C2079   1.262       .  A
C750       C1157   1.518       .  S
C751        C965   1.483       .  S
C751       O2076   1.261       .  A
C752       C1093   1.500       .  S
C752       O2072   1.278       .  A
C753        C917   1.492       .  S
O754        C767   1.297       .  A
O754       Co762   2.119   1_655  S
O755        C768   1.279       .  A
O755       Co763   2.050       .  S
O756       C2097   1.267       .  A
O756      Co2092   2.002       .  S
O757      Co2093   1.960       .  S
O758        C770   1.273   1_565  A
O758       Co763   2.019       .  S
O759        C769   1.280       .  A
O759       Co762   2.056       .  S
O760       C2095   1.265       .  A
O760      Co2093   1.882       .  S
O761      Co2092   1.987       .  S
Co762       O766   2.030   1_455  S
Co763      O1430   2.041   1_565  S
Co764      O2084   2.003       .  S
Co764      O2089   1.985       .  S
Co764       O766   2.042       .  S
Co765      O2085   1.959       .  S
Co765      O2088   1.885       .  S
Co765       O766   2.011       .  S
O766      Co1427   2.036       .  S
C767        C946   1.498       .  S
C767       O2088   1.265       .  A
C768       C1141   1.524       .  S
C769       C1077   1.521       .  S
C769       O2084   1.267   1_455  A
C770        C930   1.493       .  S
O771        C779   1.270       .  A
O771       Co791   2.011       .  S
O772        C780   1.277   1_565  A
O772       Co792   2.040       .  S
O773      Co1457   1.985       .  S
O774       C2110   1.229       .  A
O774      Co1458   1.907       .  S
O775        C781   1.273       .  A
O775       Co792   2.022       .  S
O776        C782   1.280       .  A
O776       Co791   2.080       .  S
O777      Co1458   1.941       .  S
O778       C2107   1.265       .  A
O778      Co1457   1.994       .  S
C779        C837   1.496       .  S
C779       O2106   1.267   1_455  A
C780        C898   1.493       .  S
C781       C1266   1.478       .  S
C782        C853   1.485       .  S
C782       O2102   1.230       .  A
O783        C796   1.273       .  A
O783       Co791   1.902       .  S
O784        C797   1.244       .  A
O784       Co792   1.948       .  S
O785       Co793   2.046   1_455  S
O786       C2127   1.237       .  A
O786       Co794   1.945   1_565  S
O787        C799   1.249       .  A
O787       Co792   1.968       .  S
O788        C798   1.268       .  A
O788       Co791   1.979       .  S
O789       Co794   2.060   1_455  S
O790       C2125   1.278       .  A
O790       Co793   2.087   1_565  S
Co792      O2123   2.070   1_565  S
Co793      O1437   1.972       .  S
Co793      O1442   1.994       .  S
Co793       O795   2.069       .  S
Co794      O1438   1.900   1_655  S
Co794      O1441   1.944       .  S
Co794       O795   2.045       .  S
O795      Co2120   2.069   1_545  S
C796        C882   1.464       .  S
C797        C818   1.506       .  S
C797       O2118   1.276       .  A
C798       C1285   1.504       .  S
C799        C866   1.434       .  S
C799       O2114   1.238       .  A
C800        C801   1.405       .  A
C800        C805   1.393       .  A
C800        C962   1.472       .  S
C801        C802   1.398       .  A
C801        C869   1.471       .  S
C802        C803   1.397       .  A
C802        H807   1.086       .  S
C803        C804   1.424       .  A
C803       C2178   1.486       .  S
C804        C805   1.400       .  A
C804       C2277   1.482       .  S
C805        H806   1.086       .  S
C808        C809   1.415       .  A
C808        C813   1.398       .  A
C810        H815   1.087       .  S
C811        C812   1.420       .  A
C811        C885   1.468       .  S
C812        C813   1.400       .  A
C812        C914   1.498       .  S
C813        H814   1.085       .  S
C816        C821   1.599       .  S
C816       C2162   1.615       .  S
C816       C2309   1.601       .  S
C816        C997   1.618       .  S
C817        C818   1.406       .  A
C817        C822   1.424       .  A
C817        H824   1.085       .  S
C818       C2147   1.421       .  A
C819        C826   1.527       .  S
C819       C2146   1.419   1_455  A
C819        C820   1.410       .  A
C820       C2149   1.425       .  A
C820        H825   1.070       .  S
C821       C2148   1.423       .  A
C821        C822   1.451       .  A
C822        C823   1.525       .  S
C823        F827   1.381       .  S
C823        F828   1.383       .  S
C823        F829   1.378       .  S
C826        F830   1.383       .  S
C826        F831   1.376       .  S
C826        F832   1.385       .  S
C833        C834   1.423       .  A
C833        C838   1.407       .  A
C833        H840   1.065       .  S
C834       C2144   1.624       .  S
C834       C2163   1.466   1_455  A
C835        C842   1.533       .  S
C835       C2162   1.465       .  A
C835        C836   1.425       .  A
C836       C2165   1.394       .  A
C836        H841   1.086       .  S
C837       C2164   1.395   1_455  A
C837        C838   1.402       .  A
C838        C839   1.519       .  S
C839        F843   1.384       .  S
C839        F844   1.382       .  S
C839        F845   1.380       .  S
C842        F846   1.381       .  S
C842        F847   1.363       .  S
C842        F848   1.386       .  S
C849       C2178   1.408       .  A
C849        C854   1.408       .  A
C849        H856   1.085       .  S
C850       C2177   1.407   1_455  A
C850        C851   1.412       .  A
C850       C2131   1.487       .  S
C851        C858   1.519       .  S
C851        C852   1.413       .  A
C852        C853   1.414       .  A
C852        H857   1.083       .  S
C853       C2182   1.413   1_455  A
C854        C855   1.515       .  S
C854       C2181   1.414       .  A
C855        F859   1.382       .  S
C855        F860   1.379       .  S
C855        F861   1.379       .  S
C858        F862   1.379       .  S
C858        F863   1.374       .  S
C858        F864   1.383       .  S
C865       C2194   1.398       .  A
C865        C870   1.396       .  A
C865        H872   1.086       .  S
C866       C2193   1.398       .  A
C866        C867   1.407       .  A
C867        C874   1.522       .  S
C867        C868   1.386       .  A
C868        C869   1.404       .  A
C868        H873   1.083       .  S
C869       C2198   1.418       .  A
C870        C871   1.514       .  S
C870       C2197   1.419       .  A
C871        F875   1.384       .  S
C871        F876   1.379       .  S
C871        F877   1.383       .  S
C874        F878   1.382       .  S
C874        F879   1.379       .  S
C874        F880   1.383       .  S
C881        C882   1.399       .  A
C881        C886   1.402       .  A
C881        H888   1.083       .  S
C882        C883   1.417       .  A
C883        C890   1.520       .  S
C883        C884   1.402       .  A
C884        C885   1.399       .  A
C884        H889   1.083       .  S
C885        C886   1.420       .  A
C886        C887   1.521       .  S
C887        F891   1.385       .  S
C887        F892   1.382       .  S
C890        F894   1.384       .  S
C897        C898   1.410   1_565  A
C897        C902   1.407       .  A
C897        H904   1.081       .  S
C898        C899   1.422       .  A
C899        C900   1.405       .  A
C900        C901   1.400       .  A
C901        C902   1.412   1_545  A
C902        C903   1.517       .  S
C903        F907   1.382       .  S
C903        F908   1.380       .  S
C906        F911   1.384       .  S
C906        F912   1.378       .  S
C913        H920   1.077       .  S
C914        C915   1.425       .  A
C915        C922   1.519       .  S
C915        C916   1.402       .  A
C916        C917   1.395       .  A
C916        H921   1.078       .  S
C917        C918   1.425       .  A
C919        F925   1.376       .  S
C922        F926   1.383       .  S
C922        F928   1.384       .  S
C929        C930   1.410       .  A
C929        C934   1.407       .  A
C929        H936   1.084       .  S
C930        C931   1.424   1_545  A
C931        C938   1.518       .  S
C931        C932   1.401       .  A
C932        C933   1.400   1_565  A
C933        C934   1.414       .  A
C934        C935   1.517       .  S
C935        F941   1.381       .  S
C938        F943   1.383       .  S
C938        F944   1.385       .  S
C945       C2274   1.413       .  A
C945        C950   1.407       .  A
C945        H952   1.084       .  S
C946       C2273   1.414       .  A
C946        C947   1.431   1_655  A
C947        C954   1.525       .  S
C947        C948   1.402       .  A
C948        C949   1.402   1_455  A
C948        H953   1.083       .  S
C949       C2278   1.411       .  A
C949       C2132   1.486       .  S
C950        C951   1.515       .  S
C950       C2277   1.410       .  A
C951        F955   1.383       .  S
C951        F956   1.383       .  S
C951        F957   1.380       .  S
C954        F958   1.376       .  S
C954        F959   1.369       .  S
C954        F960   1.385       .  S
C961        C962   1.401       .  A
C961        C966   1.406       .  A
C961        H968   1.083       .  S
C962       C2291   1.415       .  A
C963        C970   1.522       .  S
C963       C2290   1.416       .  A
C963        C964   1.394       .  A
C964       C2293   1.405   1_455  A
C964        H969   1.085       .  S
C965       C2292   1.405       .  A
C965        C966   1.423       .  A
C966        C967   1.517       .  S
C967        F971   1.385       .  S
C967        F972   1.380       .  S
C967        F973   1.378       .  S
C970        F974   1.384       .  S
C970        F975   1.381       .  S
C970        F976   1.383       .  S
C977        C978   1.403       .  A
C977        C982   1.417       .  A
C977        H984   1.084       .  S
C978        C979   1.425       .  A
C979        C986   1.521       .  S
C979        C980   1.420       .  A
C980        C981   1.420       .  A
C980        H985   1.073       .  S
C981       C2144   1.613       .  S
C981        C982   1.453       .  A
C982        C983   1.529       .  S
C983        F987   1.383       .  S
C983        F988   1.373       .  S
C983        F989   1.385       .  S
C986        F990   1.381       .  S
C986        F991   1.384       .  S
C986        F992   1.385       .  S
C993        C994   1.405       .  A
C993        C998   1.414       .  A
C993       H1000   1.085       .  S
C994        C995   1.426       .  A
C995       C1002   1.522       .  S
C995        C996   1.418       .  A
C996        C997   1.422       .  A
C996       H1001   1.080       .  S
C997        C998   1.435       .  A
C998        C999   1.524       .  S
C999       F1003   1.383       .  S
C999       F1004   1.381       .  S
C999       F1005   1.380       .  S
C1002      F1006   1.383       .  S
C1002      F1007   1.383       .  S
C1002      F1008   1.385       .  S
C1009      C1010   1.403       .  A
C1009      C1014   1.412       .  A
C1009      H1016   1.082       .  S
C1010      C1011   1.415       .  A
C1011      C1018   1.509       .  S
C1011      C1012   1.409       .  A
C1012      C1013   1.404       .  A
C1012      H1017   1.082       .  S
C1013      C1014   1.414       .  A
C1014      C1015   1.513       .  S
C1015      F1019   1.377       .  S
C1015      F1020   1.380       .  S
C1015      F1021   1.378       .  S
C1018      F1022   1.381       .  S
C1018      F1023   1.381       .  S
C1018      F1024   1.385       .  S
C1025      C1026   1.398       .  A
C1025      C1030   1.400       .  A
C1025      H1032   1.087       .  S
C1026      C1027   1.411       .  A
C1027      C1034   1.524       .  S
C1027      C1028   1.393       .  A
C1028      C1029   1.398       .  A
C1028      H1033   1.091       .  S
C1029      C1030   1.423       .  A
C1030      C1031   1.520       .  S
C1031      F1035   1.386       .  S
C1031      F1036   1.378       .  S
C1031      F1037   1.375       .  S
C1034      F1038   1.381       .  S
C1034      F1039   1.380       .  S
C1034      F1040   1.383       .  S
C1041      C1042   1.401       .  A
C1041      C1046   1.402       .  A
C1041      H1048   1.079       .  S
C1042      C1043   1.427       .  A
C1043      C1050   1.519       .  S
C1043      C1044   1.409       .  A
C1044      C1045   1.401       .  A
C1044      H1049   1.085       .  S
C1045      C1046   1.416       .  A
C1046      C1047   1.512       .  S
C1047      F1051   1.385       .  S
C1047      F1052   1.381       .  S
C1047      F1053   1.382       .  S
C1050      F1054   1.384       .  S
C1050      F1055   1.380       .  S
C1050      F1056   1.383       .  S
C1057      C1058   1.406       .  A
C1057      C1062   1.403       .  A
C1057      H1064   1.076       .  S
C1058      C1059   1.418       .  A
C1059      C1066   1.520       .  S
C1059      C1060   1.397       .  A
C1060      C1061   1.398       .  A
C1060      H1065   1.083       .  S
C1061      C1062   1.409       .  A
C1062      C1063   1.513       .  S
C1063      F1067   1.385       .  S
C1063      F1068   1.383       .  S
C1063      F1069   1.379       .  S
C1066      F1070   1.382       .  S
C1066      F1071   1.383       .  S
C1066      F1072   1.384       .  S
C1073      C1074   1.432       .  A
C1073      C1078   1.413       .  A
C1073      H2408   1.077       .  S
C1074      C1075   1.458       .  A
C1075      C1082   1.528       .  S
C1075      C1076   1.436       .  A
C1076      C1077   1.404       .  A
C1076      H1081   1.074   1_455  S
C1077      C1078   1.409       .  A
C1078      C2407   1.519       .  S
C1079      C2406   1.520       .  S
C1079      F2411   1.385       .  S
C1079      F2412   1.381       .  S
C1079      F1085   1.382       .  S
H1080      C2401   1.076       .  S
C1082      F1086   1.379       .  S
C1082      F2415   1.371   1_455  S
C1082      F1088   1.385       .  S
F1083      C2407   1.384       .  S
F1084      C2407   1.381       .  S
F1087      C2410   1.371       .  S
C1089      C2418   1.426       .  A
C1089      C1094   1.421       .  A
C1089      H1096   1.069       .  S
C1090      C2003   1.615       .  S
C1090      C2417   1.424       .  A
C1090      C1091   1.469       .  A
C1091      C1098   1.534       .  S
C1091      C1092   1.417       .  A
C1092      C1093   1.389       .  A
C1092      H1097   1.086       .  S
C1093      C2422   1.410       .  A
C1094      C1095   1.518       .  S
C1094      C2421   1.411       .  A
C1095      F1099   1.383       .  S
C1095      F1100   1.381       .  S
C1095      F1101   1.383       .  S
C1098      F1102   1.365       .  S
C1098      F1103   1.381       .  S
C1098      F1104   1.388       .  S
C1105      C1106   1.434       .  A
C1105      C1110   1.413       .  A
C1105      H1112   1.080       .  S
C1106      C1107   1.454       .  A
C1107      C1114   1.526       .  S
C1107      C1108   1.429       .  A
C1108      C1109   1.406       .  A
C1108      H1113   1.081       .  S
C1109      C1110   1.415       .  A
C1110      C1111   1.522       .  S
C1111      F1115   1.384       .  S
C1111      F1116   1.377       .  S
C1111      F1117   1.379       .  S
C1114      F1118   1.373   1_455  S
C1114      F1119   1.375       .  S
C1114      F1120   1.386       .  S
C1121      C1122   1.421       .  A
C1121      C1126   1.421       .  A
C1121      H1128   1.081       .  S
C1122      C2003   1.600       .  S
C1122      C1123   1.458       .  A
C1123      C1130   1.531       .  S
C1123      C1124   1.419       .  A
C1124      C1125   1.393       .  A
C1124      H1129   1.083       .  S
C1125      C1126   1.420       .  A
C1126      C1127   1.512       .  S
C1127      F1131   1.384       .  S
C1127      F1132   1.377       .  S
C1127      F1133   1.382       .  S
C1130      F1134   1.376       .  S
C1130      F1135   1.368       .  S
C1130      F1136   1.385       .  S
C1137      C1138   1.440   1_545  A
C1137      C1142   1.413       .  A
C1137      H1144   1.072       .  S
C1138      C1139   1.453       .  A
C1139      C1146   1.516       .  S
C1139      C1140   1.430       .  A
C1140      C1141   1.406       .  A
C1140      H1145   1.081       .  S
C1141      C1142   1.414   1_565  A
C1142      C1143   1.527       .  S
C1143      F1149   1.384       .  S
C1146      F1151   1.359       .  S
C1146      F1152   1.384       .  S
C1153      C1154   1.415       .  A
C1153      C1158   1.414       .  A
C1153      H1160   1.073       .  S
C1154      C1155   1.456       .  A
C1155      C1162   1.533       .  S
C1155      C1156   1.412       .  A
C1156      C1157   1.399       .  A
C1156      H1161   1.081       .  S
C1157      C1158   1.423       .  A
C1158      C1159   1.510       .  S
C1159      F1163   1.385       .  S
C1159      F1164   1.380       .  S
C1162      F1166   1.381       .  S
C1169      C1170   1.402       .  A
C1169      C1174   1.434       .  A
C1169      H1176   1.082       .  S
C1170      C1171   1.400       .  A
C1171      C1178   1.513       .  S
C1171      C1172   1.400       .  A
C1172      C1173   1.433       .  A
C1172      H1177   1.080       .  S
C1173      C1174   1.459       .  A
C1174      C1175   1.529       .  S
C1175      F1179   1.386       .  S
C1175      F1180   1.379       .  S
C1175      F1181   1.376       .  S
C1178      F1182   1.383       .  S
C1178      F1183   1.384       .  S
C1178      F1184   1.385       .  S
C1185      C1186   1.424       .  A
C1185      C1190   1.413       .  A
C1185      H1192   1.075       .  S
C1186      C1187   1.482       .  A
C1187      C1194   1.547       .  S
C1187      C1188   1.426       .  A
C1188      C1189   1.386       .  A
C1188      H1193   1.082       .  S
C1189      C1190   1.409       .  A
C1190      C1191   1.516       .  S
C1191      F1195   1.384       .  S
C1191      F1196   1.377       .  S
C1191      F1197   1.383       .  S
C1194      F1198   1.370       .  S
C1194      F1199   1.374       .  S
C1194      F1200   1.386       .  S
C1201      C1202   1.400       .  A
C1201      C1206   1.399       .  A
C1201      H1208   1.082       .  S
C1202      C1203   1.423       .  A
C1203      C1210   1.496       .  S
C1203      C1204   1.400       .  A
C1204      C1205   1.388       .  A
C1204      H1209   1.084       .  S
C1205      C1206   1.425       .  A
C1206      C1207   1.519       .  S
C1207      F1211   1.383       .  S
C1207      F1212   1.383       .  S
C1207      F1213   1.376       .  S
C1210      F1214   1.380       .  S
C1210      F1215   1.384       .  S
C1210      F1216   1.384       .  S
C1217      C1218   1.404       .  A
C1217      C1222   1.409       .  A
C1217      H1224   1.078       .  S
C1218      C1219   1.415       .  A
C1219      C1226   1.519       .  S
C1219      C1220   1.414       .  A
C1220      C1221   1.413       .  A
C1220      H1225   1.082       .  S
C1221      C1222   1.418       .  A
C1222      C1223   1.513       .  S
C1223      F1227   1.384       .  S
C1223      F1228   1.380   1_554  S
C1223      F1229   1.381   1_554  S
C1226      F1230   1.384       .  S
C1226      F1231   1.377       .  S
C1226      F1232   1.380       .  S
C1233      C1234   1.418       .  A
C1233      C1238   1.409       .  A
C1233      H1240   1.084       .  S
C1234      C1235   1.424       .  A
C1235      C1242   1.516       .  S
C1235      C1236   1.416       .  A
C1236      C1237   1.404       .  A
C1236      H1241   1.080       .  S
C1237      C1238   1.407       .  A
C1238      C1239   1.517       .  S
C1239      F1243   1.384       .  S
C1239      F1244   1.383       .  S
C1239      F1245   1.382       .  S
C1242      F1246   1.382   1_556  S
C1242      F1247   1.376   1_556  S
C1242      F1248   1.379       .  S
C1249      C1250   1.411       .  A
C1249      C1254   1.410       .  A
C1249      H1256   1.077       .  S
C1250      C1251   1.424       .  A
C1251      C1258   1.519       .  S
C1251      C1252   1.401       .  A
C1252      C1253   1.402       .  A
C1252      H1257   1.083       .  S
C1253      C1254   1.407       .  A
C1254      C1255   1.517       .  S
C1255      F1259   1.381       .  S
C1255      F1260   1.383       .  S
C1255      F1261   1.382       .  S
C1258      F1262   1.378       .  S
C1258      F1263   1.383       .  S
C1258      F1264   1.385       .  S
C1265      C1266   1.384       .  A
C1265      C1270   1.406       .  A
C1265      H1272   1.084       .  S
C1267      C1274   1.516       .  S
C1267      C1268   1.420       .  A
C1268      H1273   1.073       .  S
C1269      C1270   1.464       .  A
C1270      C1271   1.538       .  S
C1271      F1275   1.386       .  S
C1271      F1276   1.374       .  S
C1271      F1277   1.378       .  S
C1274      F1278   1.383       .  S
C1274      F1279   1.383       .  S
C1274      F1280   1.384       .  S
C1281      C1282   1.436       .  A
C1281      C1286   1.412       .  A
C1281      H1288   1.074       .  S
C1283      C1290   1.525       .  S
C1283      C1284   1.424       .  A
C1284      H1289   1.085       .  S
C1285      C1286   1.404       .  A
C1286      C1287   1.523       .  S
C1287      F1291   1.385       .  S
C1287      F1292   1.381       .  S
C1290      F1295   1.384       .  S
C1290      F1296   1.383       .  S
C1297      C1298   1.431       .  A
C1297      C1302   1.412       .  A
C1297      H1304   1.065       .  S
C1298      C1299   1.460       .  A
C1299      C1306   1.523       .  S
C1299      C1300   1.424       .  A
C1300      C1301   1.397       .  A
C1300      H1305   1.083       .  S
C1301      C1302   1.419       .  A
C1302      C1303   1.528       .  S
C1303      F1307   1.385       .  S
C1303      F1308   1.384       .  S
C1303      F1309   1.384       .  S
C1306      F1310   1.379       .  S
C1306      F1311   1.368       .  S
C1306      F1312   1.387       .  S
C1313      C1314   1.409       .  A
C1313      C1318   1.412       .  A
C1313      H1320   1.076       .  S
C1314      C1315   1.460       .  A
C1315      C1322   1.534       .  S
C1315      C1316   1.416       .  A
C1316      C1317   1.393       .  A
C1316      H1321   1.083       .  S
C1317      C1318   1.435       .  A
C1318      C1319   1.528       .  S
C1319      F1323   1.385       .  S
C1319      F1324   1.384       .  S
C1319      F1325   1.383       .  S
C1322      F1326   1.386       .  S
C1322      F1327   1.373       .  S
C1322      F1328   1.382       .  S
C1329      C2597   1.607       .  S
C1329      C1946   1.624       .  S
C1329      C1962   1.638   1_565  S
C1329      C2642   1.592       .  S
C1330      C1331   1.422   1_554  A
C1330      C1885   1.483       .  S
C1331      C1917   1.484       .  S
C1332      C1333   1.395       .  A
C1332      H1337   1.087       .  S
C1333      C1334   1.418   1_556  A
C1333      C1898   1.472       .  S
C1334      C1335   1.398       .  A
C1334      C1869   1.495       .  S
C1335      H1336   1.085       .  S
C1338      C2466   1.648       .  S
C1338      C1818   1.603       .  S
C1338      C1837   1.611   1_565  S
C1338      C2514   1.619       .  S
C1339      C1738   1.625       .  S
C1339      C1770   1.642       .  S
C1340      C1341   1.413   1_554  A
C1340      C2009   1.404       .  A
C1340      C1690   1.489       .  S
C1341      C2006   1.389       .  A
C1341      C1722   1.475       .  S
C1342      C2005   1.398       .  A
C1342      C1343   1.406   1_565  A
C1342      H1347   1.084       .  S
C1343      C1344   1.427   1_556  A
C1343      C1706   1.478       .  S
C1344      C1345   1.392   1_545  A
C1344      C1677   1.490       .  S
C1345      C2004   1.392       .  A
C1345      H1346   1.086       .  S
O1348      C1356   1.271       .  A
O1348     Co1368   2.027       .  S
O1349      C1357   1.264       .  A
O1349     Co1369   2.019       .  S
O1350      C1358   1.262       .  A
O1350     Co1370   1.876       .  S
O1351      C1359   1.265       .  A
O1351     Co1371   1.980       .  S
O1352      C1358   1.301       .  A
O1352     Co1369   2.112       .  S
O1353      C1359   1.282       .  A
O1353     Co1368   2.056       .  S
O1354      C1357   1.259       .  A
O1354     Co1371   1.997       .  S
O1355      C1356   1.270       .  A
O1355     Co1370   1.981       .  S
C1356      C1914   1.509       .  S
C1357      C1834   1.497       .  S
C1358      C1709   1.475       .  S
C1359      C1789   1.503       .  S
O1360      C1373   1.246       .  A
O1360     Co1368   1.943       .  S
O1361      C1374   1.264       .  A
O1361     Co1369   1.910       .  S
O1362      C1375   1.261       .  A
O1362     Co1370   2.012       .  S
O1363      C1376   1.287       .  A
O1363     Co1371   2.072       .  S
O1364      C1376   1.265       .  A
O1364     Co1369   1.982       .  S
O1365      C1375   1.252       .  A
O1365     Co1368   1.968       .  S
O1366      C1373   1.272       .  A
O1366     Co1371   2.051       .  S
O1367      C1374   1.286       .  A
O1367     Co1370   2.080       .  S
Co1368     O1372   2.040       .  S
Co1369     O1372   2.040       .  S
Co1370     O1372   2.020       .  S
Co1371     O1372   2.058       .  S
C1373      C1853   1.487       .  S
C1374      C1901   1.464       .  S
C1375      C1725   1.472       .  S
C1376      C1773   1.528       .  S
O1377      C1385   1.277       .  A
O1377     Co1397   2.049       .  S
O1378      C1386   1.303       .  A
O1378     Co1398   2.130       .  S
O1379      C1387   1.263       .  A
O1379     Co1399   2.006       .  S
O1380      C1388   1.261       .  A
O1380     Co1400   1.959       .  S
O1381      C1387   1.272       .  A
O1381     Co1398   2.025       .  S
O1382      C1388   1.277       .  A
O1382     Co1397   2.033       .  S
O1383      C1386   1.264       .  A
O1383     Co1400   1.883       .  S
O1384      C1385   1.266       .  A
O1384     Co1399   1.967       .  S
C1385      C1658   1.520       .  S
C1386      C1674   1.491       .  S
C1387      C1965   1.512       .  S
C1388      C1882   1.494       .  S
O1389      C1402   1.252       .  A
O1389     Co1397   1.960       .  S
O1390      C1403   1.271       .  A
O1390     Co1398   1.991       .  S
O1391      C1404   1.280       .  A
O1391     Co1399   2.073       .  S
O1392      C1405   1.295       .  A
O1392     Co1400   2.115       .  S
O1393      C1405   1.271       .  A
O1393     Co1398   1.894       .  S
O1394      C1404   1.242       .  A
O1394     Co1397   1.942       .  S
O1395      C1402   1.269       .  A
O1395     Co1400   2.040       .  S
O1396      C1403   1.283       .  A
O1396     Co1399   2.041       .  S
Co1397     O1401   2.034       .  S
Co1398     O1401   2.018       .  S
Co1399     O1401   2.057       .  S
Co1400     O1401   2.009       .  S
C1402      C1693   1.496       .  S
C1403      C1642   1.525       .  S
C1404      C1981   1.512       .  S
C1405      C1866   1.497       .  S
O1406      C1414   1.270       .  A
O1406     Co1426   1.987       .  S
O1407      C1415   1.255       .  A
O1407     Co1427   1.953       .  S
O1408     Co2092   2.066       .  S
O1409      C2081   1.286       .  A
O1409     Co2093   2.093       .  S
O1410      C1416   1.248   1_455  A
O1410     Co1427   1.955   1_455  S
O1411      C1417   1.272       .  A
O1411     Co1426   1.931       .  S
O1412     Co2093   2.019       .  S
O1413      C2078   1.281       .  A
O1413     Co2092   2.030       .  S
C1414      C1821   1.526       .  S
C1414      O2077   1.286       .  A
C1415      C1629   1.484       .  S
C1416      C1757   1.504   1_655  S
C1417      C1581   1.495       .  S
C1417      O2073   1.286       .  A
O1418      C1431   1.293       .  A
O1418     Co1426   2.111       .  S
O1419      C1432   1.279       .  A
O1419     Co1427   2.051       .  S
O1421      C2098   1.264       .  A
O1422      C1434   1.273       .  A
O1422     Co1427   2.020       .  S
O1423      C1433   1.275       .  A
O1423     Co1426   2.045       .  S
O1425      C2096   1.267   1_545  A
Co1426     O1430   2.035       .  S
Co1428     O2072   2.053   1_545  S
Co1428     O2077   2.044       .  S
Co1428     O1430   2.039       .  S
Co1429     O2073   2.093       .  S
Co1429     O2076   2.010   1_545  S
Co1429     O1430   2.013       .  S
C1431      C1610   1.495       .  S
C1432      C1805   1.522       .  S
C1432      O2089   1.266       .  A
C1433      C1741   1.516       .  S
C1434      C1594   1.492       .  S
C1434      O2085   1.266       .  A
O1435      C1443   1.270       .  A
O1435     Co1455   2.015       .  S
O1436      C1444   1.278       .  A
O1436     Co1456   2.041       .  S
O1437      C2109   1.259       .  A
O1439      C1445   1.274       .  A
O1439     Co1456   2.028       .  S
O1440      C1446   1.280       .  A
O1440     Co1455   2.077       .  S
O1441      C2108   1.256       .  A
C1443      C1501   1.496       .  S
C1444      C1562   1.498       .  S
C1444      O2105   1.256       .  A
C1445      C1930   1.493       .  S
C1445      O2101   1.268       .  A
C1446      C1517   1.481       .  S
O1447      C1460   1.271       .  A
O1447     Co1455   1.899       .  S
O1448      C1461   1.248       .  A
O1448     Co1456   1.955       .  S
O1449      C2126   1.278       .  A
O1449     Co1457   2.047       .  S
O1450     Co1458   1.938       .  S
O1451      C1463   1.252       .  A
O1451     Co1456   1.977   1_455  S
O1452      C1462   1.267       .  A
O1452     Co1455   1.975       .  S
O1453      C2124   1.289       .  A
O1453     Co1458   2.056       .  S
O1454     Co1457   2.071       .  S
Co1455     O2123   2.001       .  S
Co1457     O1459   2.066       .  S
Co1458     O1459   2.048       .  S
O1459     Co2119   2.015       .  S
C1460      C1546   1.464       .  S
C1460      O2117   1.289       .  A
C1461      C1482   1.508       .  S
C1462      C1949   1.506       .  S
C1462      O2113   1.278       .  A
C1463      C1530   1.439       .  S
C1464      C1465   1.406       .  A
C1464      C1469   1.396       .  A
C1464      C1626   1.470       .  S
C1465      C1466   1.399       .  A
C1465      C1533   1.476       .  S
C1466      C1467   1.398       .  A
C1466      H1471   1.086       .  S
C1467      C1468   1.422       .  A
C1468      C1469   1.400       .  A
C1469      H1470   1.086   1_455  S
C1472      C1473   1.417       .  A
C1472      C1477   1.400       .  A
C1472      C2261   1.479       .  S
C1473      C2138   1.394       .  A
C1473      C2229   1.477       .  S
C1474      C2137   1.394       .  A
C1474      C2139   1.398       .  A
C1474      H1479   1.087       .  S
C1475      C2138   1.393       .  A
C1475      C1476   1.418       .  A
C1475      C1549   1.470       .  S
C1476      C1477   1.400       .  A
C1476      C1578   1.497       .  S
C1477      H1478   1.085       .  S
C1480      C1485   1.612       .  S
C1480      C1661   1.618   1_455  S
C1481      C1482   1.404       .  A
C1481      C1486   1.427       .  A
C1481      H1488   1.085       .  S
C1483      C1490   1.523       .  S
C1483      C1484   1.408       .  A
C1484      H1489   1.070       .  S
C1485      C1486   1.458   1_455  A
C1486      C1487   1.525       .  S
C1487      F1491   1.381       .  S
C1487      F1492   1.384       .  S
C1487      F1493   1.375       .  S
C1490      F1494   1.383       .  S
C1490      F1495   1.376       .  S
C1490      F1496   1.384       .  S
C1497      C1498   1.426       .  A
C1497      C1502   1.409       .  A
C1497      H1504   1.070       .  S
C1499      C1506   1.531   1_455  S
C1499      C1500   1.422   1_455  A
C1500      H1505   1.085       .  S
C1501      C1502   1.401       .  A
C1502      C1503   1.515       .  S
C1503      F1507   1.383       .  S
C1503      F1508   1.383       .  S
C1503      F1509   1.381       .  S
C1506      F1510   1.381       .  S
C1506      F1511   1.366   1_655  S
C1506      F1512   1.386   1_655  S
C1513      C1518   1.406       .  A
C1513      H1520   1.085       .  S
C1514      C1515   1.409       .  A
C1515      C1522   1.518       .  S
C1515      C1516   1.410       .  A
C1516      C1517   1.413       .  A
C1516      H1521   1.083       .  S
C1518      C1519   1.516       .  S
C1519      F1523   1.382       .  S
C1519      F1524   1.380       .  S
C1519      F1525   1.379       .  S
C1522      F1526   1.377       .  S
C1522      F1527   1.375       .  S
C1522      F1528   1.384       .  S
C1529      C1534   1.395       .  A
C1529      H1536   1.086       .  S
C1530      C1531   1.405   1_455  A
C1531      C1538   1.523       .  S
C1531      C1532   1.386   1_655  A
C1532      C1533   1.406       .  A
C1532      H1537   1.083   1_455  S
C1534      C1535   1.513       .  S
C1535      F1539   1.384       .  S
C1535      F1540   1.378       .  S
C1535      F1541   1.384       .  S
C1538      F1542   1.382       .  S
C1538      F1543   1.380       .  S
C1538      F1544   1.383       .  S
C1545      C1546   1.398       .  A
C1545      C1550   1.401       .  A
C1545      H1552   1.083       .  S
C1546      C1547   1.417   1_545  A
C1547      C1554   1.521       .  S
C1547      C1548   1.404       .  A
C1548      C1549   1.400   1_565  A
C1548      H1553   1.083       .  S
C1549      C1550   1.420       .  A
C1550      C1551   1.522       .  S
C1551      F1555   1.385       .  S
C1551      F1556   1.382       .  S
C1551      F2221   1.382       .  S
C1554      F1558   1.384       .  S
C1554      F2223   1.375       .  S
C1554      F2224   1.384       .  S
F1557      C2215   1.381       .  S
F1559      C2218   1.375       .  S
F1560      C2218   1.384       .  S
C1561      C1562   1.409       .  A
C1561      C1566   1.404       .  A
C1561      H1568   1.083       .  S
C1562      C1563   1.425       .  A
C1563      C2234   1.514       .  S
C1563      C1564   1.407       .  A
C1564      C1565   1.398       .  A
C1564      H2233   1.080       .  S
C1565      C1566   1.415       .  A
C1565      C2137   1.479       .  S
C1566      C1567   1.517       .  S
C1567      F1571   1.383       .  S
C1567      F1572   1.382       .  S
C1567      F2237   1.384       .  S
H1569      C2228   1.082       .  S
C1570      C2227   1.513       .  S
C1570      F2238   1.384       .  S
C1570      F1575   1.384       .  S
C1570      F1576   1.378       .  S
F1573      C2231   1.383       .  S
F1574      C2234   1.385       .  S
C1577      C2242   1.398       .  A
C1577      C2246   1.412       .  A
C1577      H1584   1.077       .  S
C1578      C2241   1.397       .  A
C1578      C1579   1.425   1_545  A
C1579      C1586   1.519       .  S
C1579      C1580   1.405   1_565  A
C1580      C1581   1.397       .  A
C1580      H1585   1.078   1_545  S
C1581      C1582   1.423       .  A
C1582      C2247   1.504       .  S
C1582      C2241   1.407       .  A
C1583      C2246   1.508       .  S
C1583      F2251   1.384       .  S
C1583      F2252   1.369       .  S
C1583      F1589   1.376       .  S
C1586      F1590   1.383       .  S
C1586      F2255   1.383       .  S
C1586      F1592   1.384       .  S
F1587      C2247   1.383       .  S
F1588      C2247   1.368       .  S
F1591      C2250   1.384       .  S
C1593      C1594   1.411       .  A
C1593      C1598   1.405       .  A
C1593      H1600   1.084       .  S
C1594      C1595   1.425       .  A
C1595      C1602   1.521       .  S
C1595      C1596   1.403       .  A
C1596      C1597   1.401       .  A
C1596      H2265   1.083       .  S
C1597      C1598   1.414       .  A
C1597      C2136   1.472       .  S
C1598      C1599   1.518       .  S
C1599      F2267   1.385       .  S
C1599      F2268   1.382       .  S
C1599      F1605   1.381       .  S
H1601      C2260   1.082       .  S
C1602      F2270   1.382       .  S
C1602      F1607   1.382       .  S
C1602      F1608   1.385       .  S
F1603      C2263   1.384       .  S
F1604      C2263   1.383       .  S
F1606      C2266   1.382       .  S
C1609      C1614   1.411       .  A
C1609      H1616   1.084       .  S
C1610      C1611   1.435       .  A
C1611      C1618   1.528       .  S
C1611      C1612   1.401       .  A
C1612      C1613   1.400       .  A
C1612      H1617   1.086       .  S
C1614      C1615   1.517       .  S
C1615      F1619   1.382       .  S
C1615      F1620   1.383       .  S
C1615      F1621   1.380       .  S
C1618      F1622   1.383       .  S
C1618      F1623   1.366       .  S
C1618      F1624   1.384       .  S
C1625      C1626   1.402   1_655  A
C1625      C1630   1.406       .  A
C1625      H1632   1.083       .  S
C1627      C1634   1.523       .  S
C1627      C1628   1.393       .  A
C1628      H1633   1.085       .  S
C1629      C1630   1.421       .  A
C1630      C1631   1.516       .  S
C1631      F1635   1.384       .  S
C1631      F1636   1.380       .  S
C1631      F1637   1.377       .  S
C1634      F1638   1.384       .  S
C1634      F1639   1.381       .  S
C1634      F1640   1.383       .  S
C1641      C1642   1.403       .  A
C1641      C1646   1.417       .  A
C1641      H1648   1.084       .  S
C1642      C1643   1.423       .  A
C1643      C1650   1.523       .  S
C1643      C1644   1.420       .  A
C1644      C1645   1.427       .  A
C1644      H1649   1.069       .  S
C1645      C1646   1.455       .  A
C1646      C1647   1.530       .  S
C1647      F1651   1.384       .  S
C1647      F1652   1.369       .  S
C1647      F1653   1.385       .  S
C1650      F1654   1.381       .  S
C1650      F1655   1.383       .  S
C1650      F1656   1.385       .  S
C1657      C1658   1.402       .  A
C1657      C1662   1.409       .  A
C1657      H1664   1.083       .  S
C1658      C1659   1.422       .  A
C1659      C1666   1.517       .  S
C1659      C1660   1.425       .  A
C1660      C1661   1.429       .  A
C1660      H1665   1.082       .  S
C1661      C1662   1.444       .  A
C1662      C1663   1.518       .  S
C1663      F1667   1.387       .  S
C1663      F1668   1.378       .  S
C1663      F1669   1.378   1_655  S
C1666      F1670   1.383       .  S
C1666      F1671   1.383       .  S
C1666      F1672   1.384       .  S
C1673      C1674   1.405       .  A
C1673      C1678   1.409       .  A
C1673      H1680   1.082       .  S
C1674      C1675   1.416       .  A
C1675      C1682   1.512       .  S
C1675      C1676   1.408       .  A
C1676      C1677   1.405       .  A
C1676      H1681   1.082       .  S
C1677      C1678   1.421       .  A
C1678      C1679   1.517       .  S
C1679      F1683   1.383       .  S
C1679      F1684   1.383       .  S
C1679      F1685   1.380       .  S
C1682      F1686   1.382       .  S
C1682      F1687   1.380       .  S
C1682      F1688   1.385       .  S
C1689      C1690   1.403       .  A
C1689      C1694   1.410       .  A
C1689      H1696   1.083       .  S
C1690      C1691   1.417       .  A
C1691      C1698   1.518       .  S
C1691      C1692   1.403       .  A
C1692      C1693   1.406       .  A
C1692      H1697   1.085       .  S
C1693      C1694   1.419       .  A
C1694      C1695   1.506       .  S
C1695      F1699   1.382       .  S
C1695      F1700   1.369       .  S
C1695      F1701   1.383       .  S
C1698      F1702   1.382       .  S
C1698      F1703   1.383       .  S
C1698      F1704   1.384       .  S
C1705      C1706   1.393       .  A
C1705      C1710   1.397       .  A
C1705      H1712   1.078       .  S
C1706      C1707   1.422       .  A
C1707      C1714   1.521       .  S
C1707      C1708   1.410       .  A
C1708      C1709   1.401       .  A
C1708      H1713   1.082       .  S
C1709      C1710   1.413       .  A
C1710      C1711   1.507       .  S
C1711      F1715   1.384       .  S
C1711      F1716   1.381       .  S
C1711      F1717   1.382       .  S
C1714      F1718   1.384       .  S
C1714      F1719   1.381       .  S
C1714      F1720   1.380   1_545  S
C1721      C1722   1.393       .  A
C1721      C1726   1.398       .  A
C1721      H1728   1.085       .  S
C1722      C1723   1.421       .  A
C1723      C1730   1.524       .  S
C1723      C1724   1.397       .  A
C1724      C1725   1.402       .  A
C1724      H1729   1.085       .  S
C1725      C1726   1.418       .  A
C1726      C1727   1.503       .  S
C1727      F1731   1.379       .  S
C1727      F1732   1.376       .  S
C1727      F1733   1.380       .  S
C1730      F1734   1.383       .  S
C1730      F1735   1.382       .  S
C1730      F1736   1.385       .  S
C1737      C1738   1.433       .  A
C1737      C1742   1.410       .  A
C1738      C1739   1.461       .  A
C1739      C1746   1.530       .  S
C1739      C1740   1.439       .  A
C1740      C1741   1.406       .  A
C1740      H1745   1.078       .  S
C1741      C1742   1.407       .  A
C1743      F1749   1.382   1_455  S
C1746      F1750   1.380       .  S
C1746      F1752   1.384       .  S
C1753      C1758   1.424       .  A
C1753      H1760   1.077       .  S
C1754      C1755   1.473   1_455  A
C1755      C1762   1.534       .  S
C1755      C1756   1.416       .  A
C1756      C1757   1.384   1_655  A
C1756      H1761   1.086       .  S
C1758      C1759   1.515       .  S
C1759      F1763   1.384       .  S
C1759      F1764   1.380       .  S
C1759      F1765   1.382       .  S
C1762      F1766   1.362       .  S
C1762      F1767   1.380       .  S
C1762      F1768   1.388       .  S
C1769      C1770   1.436       .  A
C1769      C1774   1.411       .  A
C1769      H1776   1.074       .  S
C1770      C1771   1.458       .  A
C1771      C1778   1.531       .  S
C1771      C1772   1.435       .  A
C1772      C1773   1.408       .  A
C1772      H1777   1.081       .  S
C1773      C1774   1.410       .  A
C1774      C1775   1.516       .  S
C1775      F1779   1.385       .  S
C1775      F1780   1.382       .  S
C1775      F1781   1.383       .  S
C1778      F1782   1.373       .  S
C1778      F1783   1.374       .  S
C1778      F1784   1.386       .  S
C1785      C1786   1.426       .  A
C1785      C1790   1.430       .  A
C1785      H1792   1.078   1_655  S
C1786      C1787   1.457       .  A
C1787      C1794   1.529       .  S
C1787      C1788   1.413       .  A
C1788      C1789   1.389       .  A
C1788      H1793   1.083       .  S
C1789      C1790   1.414       .  A
C1790      C1791   1.513       .  S
C1791      F1795   1.384       .  S
C1791      F1796   1.383       .  S
C1791      F1797   1.383       .  S
C1794      F1798   1.378       .  S
C1794      F1799   1.367       .  S
C1794      F1800   1.386       .  S
C1801      C1802   1.436       .  A
C1801      C1806   1.413       .  A
C1801      H1808   1.069       .  S
C1802      C2002   1.645       .  S
C1802      C1803   1.457       .  A
C1803      C1810   1.523       .  S
C1803      C1804   1.429       .  A
C1804      C1805   1.404       .  A
C1804      H1809   1.082       .  S
C1805      C1806   1.416       .  A
C1806      C1807   1.528       .  S
C1807      F2475   1.385       .  S
C1807      F2476   1.383       .  S
C1807      F1813   1.384       .  S
C1810      F2478   1.386       .  S
C1810      F1815   1.360       .  S
C1810      F1816   1.382       .  S
F1811      C2471   1.385       .  S
F1812      C2471   1.383       .  S
F1814      C2474   1.384       .  S
C1817      C1818   1.417       .  A
C1817      C1822   1.423       .  A
C1817      H1824   1.072       .  S
C1818      C1819   1.458   1_565  A
C1819      C1826   1.532       .  S
C1819      C1820   1.414       .  A
C1820      C1821   1.398       .  A
C1820      H1825   1.080       .  S
C1821      C1822   1.426   1_545  A
C1822      C1823   1.512       .  S
C1823      F1827   1.385       .  S
C1823      F1828   1.381   1_565  S
C1823      F2493   1.383       .  S
C1826      F1830   1.381       .  S
C1826      F2495   1.369   1_545  S
C1826      F2496   1.386       .  S
F1829      C2487   1.384       .  S
F1831      C2490   1.369       .  S
F1832      C2490   1.386       .  S
C1833      C1834   1.406       .  A
C1833      C1838   1.433       .  A
C1833      H1840   1.083       .  S
C1834      C1835   1.410       .  A
C1835      C1842   1.522       .  S
C1835      C1836   1.399       .  A
C1836      C1837   1.431       .  A
C1836      H1841   1.084       .  S
C1837      C1838   1.456       .  A
C1838      C1839   1.531   1_545  S
C1839      F1843   1.385   1_565  S
C1839      F1844   1.379       .  S
C1839      F1845   1.376       .  S
C1842      F1846   1.384       .  S
C1842      F1847   1.377       .  S
C1842      F1848   1.383       .  S
C1849      C1850   1.423       .  A
C1849      C1854   1.409       .  A
C1849      H1856   1.078       .  S
C1850      C2002   1.607       .  S
C1850      C1851   1.481       .  A
C1851      C1858   1.548       .  S
C1851      C1852   1.422       .  A
C1852      C1853   1.384       .  A
C1852      H1857   1.083       .  S
C1853      C1854   1.405       .  A
C1854      C1855   1.515       .  S
C1855      F1859   1.384       .  S
C1855      F1860   1.378       .  S
C1855      F1861   1.383       .  S
C1858      F1862   1.368       .  S
C1858      F1863   1.374       .  S
C1858      F1864   1.387       .  S
C1865      C1866   1.400       .  A
C1865      C1870   1.399       .  A
C1865      H1872   1.084       .  S
C1866      C1867   1.427       .  A
C1867      C1874   1.510       .  S
C1867      C1868   1.408       .  A
C1868      C1869   1.398       .  A
C1868      H1873   1.080       .  S
C1869      C1870   1.426       .  A
C1870      C1871   1.519       .  S
C1871      F1875   1.384       .  S
C1871      F1876   1.381       .  S
C1871      F1877   1.382       .  S
C1874      F1878   1.373       .  S
C1874      F1879   1.374       .  S
C1874      F1880   1.384       .  S
C1881      C1882   1.403       .  A
C1881      C1886   1.408       .  A
C1881      H1888   1.084       .  S
C1882      C1883   1.414       .  A
C1883      C1890   1.523       .  S
C1883      C1884   1.411       .  A
C1884      C1885   1.411       .  A
C1884      H1889   1.083       .  S
C1885      C1886   1.422       .  A
C1886      C1887   1.522       .  S
C1887      F1891   1.382       .  S
C1887      F1892   1.381       .  S
C1887      F1893   1.384       .  S
C1890      F1894   1.384       .  S
C1890      F1895   1.375       .  S
C1890      F1896   1.384       .  S
C1897      C1898   1.408       .  A
C1897      C1902   1.401       .  A
C1897      H1904   1.084       .  S
C1898      C1899   1.415       .  A
C1899      C1906   1.516       .  S
C1899      C1900   1.401       .  A
C1900      C1901   1.400       .  A
C1900      H1905   1.079       .  S
C1901      C1902   1.408       .  A
C1902      C1903   1.520       .  S
C1903      F1907   1.384       .  S
C1903      F1908   1.382       .  S
C1903      F1909   1.380       .  S
C1906      F1910   1.377       .  S
C1906      F1911   1.383       .  S
C1906      F1912   1.382       .  S
C1913      C1914   1.404       .  A
C1913      C1918   1.409       .  A
C1913      H1920   1.078       .  S
C1914      C1915   1.433       .  A
C1915      C1922   1.517       .  S
C1915      C1916   1.411       .  A
C1916      C1917   1.396       .  A
C1916      H1921   1.080       .  S
C1917      C1918   1.420       .  A
C1918      C1919   1.525       .  S
C1919      F1923   1.383       .  S
C1919      F1924   1.383       .  S
C1919      F1925   1.379       .  S
C1922      F1926   1.375       .  S
C1922      F1927   1.383       .  S
C1922      F1928   1.385       .  S
C1929      C1930   1.385       .  A
C1929      C1934   1.410       .  A
C1929      H1936   1.083       .  S
C1930      C2595   1.410       .  A
C1931      C1938   1.518       .  S
C1931      C2594   1.424       .  A
C1931      C1932   1.422       .  A
C1932      C2597   1.419   1_545  A
C1932      H1937   1.079       .  S
C1933      C1993   1.612       .  S
C1933      C2596   1.426       .  A
C1933      C1934   1.466       .  A
C1934      C1935   1.538       .  S
C1935      F1939   1.386       .  S
C1935      F1940   1.374       .  S
C1935      F1941   1.379       .  S
C1938      F1942   1.382       .  S
C1938      F1943   1.383       .  S
C1938      F1944   1.384       .  S
C1945      C1946   1.437       .  A
C1945      C1950   1.412       .  A
C1945      H1952   1.073       .  S
C1946      C2611   1.460   1_565  A
C1947      C1954   1.522       .  S
C1947      C2610   1.450       .  A
C1947      C1948   1.424       .  A
C1948      C2613   1.403       .  A
C1948      H1953   1.085       .  S
C1949      C2612   1.401       .  A
C1949      C1950   1.406   1_545  A
C1950      C1951   1.524       .  S
C1951      F1955   1.385       .  S
C1951      F1956   1.380   1_565  S
C1951      F2621   1.370       .  S
C1954      F2622   1.367       .  S
C1954      F1959   1.384       .  S
C1954      F1960   1.384       .  S
F1957      C2615   1.370       .  S
F1958      C2618   1.378       .  S
C1961      C1962   1.431       .  A
C1961      C1966   1.427       .  A
C1961      H1968   1.074       .  S
C1962      C1963   1.452       .  A
C1963      C1970   1.514       .  S
C1963      C1964   1.414       .  A
C1964      C1965   1.390       .  A
C1964      H1969   1.085       .  S
C1965      C1966   1.417       .  A
C1966      C1967   1.517       .  S
C1967      F1971   1.384       .  S
C1967      F1972   1.383       .  S
C1967      F1973   1.384       .  S
C1970      F1974   1.373       .  S
C1970      F1975   1.377       .  S
C1970      F1976   1.388       .  S
C1977      C1978   1.411       .  A
C1977      C1982   1.415       .  A
C1977      H1984   1.076       .  S
C1978      C1993   1.592       .  S
C1978      C1979   1.458       .  A
C1979      C1986   1.533       .  S
C1979      C1980   1.417       .  A
C1980      C1981   1.394       .  A
C1980      H1985   1.083       .  S
C1981      C1982   1.432       .  A
C1982      C1983   1.526       .  S
C1983      F1987   1.385       .  S
C1983      F1988   1.384       .  S
C1983      F1989   1.384       .  S
C1986      F1990   1.386       .  S
C1986      F1991   1.372       .  S
C1986      F1992   1.382       .  S
C1993      C2610   1.613       .  S
C1993      C2626   1.636       .  S
C1994      C1995   1.419   1_554  A
C1994      C2549   1.507       .  S
C1995      C2581   1.466       .  S
C1996      C1997   1.401       .  A
C1996      H2001   1.087       .  S
C1997      C1998   1.419   1_556  A
C1997      C2562   1.509       .  S
C1998      C1999   1.397       .  A
C1998      C2533   1.471       .  S
C1999      H2000   1.085       .  S
C2002      C2482   1.595       .  S
C2002      C2501   1.619       .  S
C2003      C2402   1.628       .  S
C2003      C2434   1.628       .  S
C2004      C2005   1.403   1_554  A
C2004      C2354   1.457       .  S
C2005      C2386   1.489       .  S
C2006      C2007   1.393       .  A
C2006      H2011   1.083       .  S
C2007      C2008   1.426   1_556  A
C2007      C2370   1.481       .  S
C2008      C2009   1.407       .  A
C2008      C2341   1.491       .  S
C2009      H2010   1.085       .  S
O2012      C2020   1.271       .  A
O2012     Co2032   2.008       .  S
O2013      C2021   1.273       .  A
O2013     Co2033   2.034       .  S
O2014      C2022   1.261       .  A
O2014     Co2034   1.879       .  S
O2015      C2023   1.265       .  A
O2015     Co2035   1.995       .  S
O2016      C2022   1.299       .  A
O2016     Co2033   2.124       .  S
O2017      C2023   1.279       .  A
O2017     Co2032   2.050       .  S
O2018      C2021   1.264       .  A
O2018     Co2035   1.997       .  S
O2019      C2020   1.266       .  A
O2019     Co2034   1.965       .  S
C2020      C2578   1.484       .  S
C2021      C2498   1.503       .  S
C2022      C2373   1.479       .  S
C2023      C2453   1.510       .  S
O2024      C2037   1.252       .  A
O2024     Co2032   1.948       .  S
O2025      C2038   1.271       .  A
O2025     Co2033   1.914       .  S
O2026      C2039   1.264       .  A
O2026     Co2034   2.021       .  S
O2027      C2040   1.280       .  A
O2027     Co2035   2.051       .  S
O2028      C2040   1.270       .  A
O2028     Co2033   1.982       .  S
O2029      C2039   1.255       .  A
O2029     Co2032   1.970       .  S
O2030      C2037   1.283       .  A
O2030     Co2035   2.077       .  S
O2031      C2038   1.292       .  A
O2031     Co2034   2.099       .  S
Co2032     O2036   2.045       .  S
Co2033     O2036   2.034       .  S
Co2034     O2036   2.011       .  S
Co2035     O2036   2.052       .  S
C2037      C2517   1.502       .  S
C2038      C2565   1.485       .  S
C2039      C2389   1.472       .  S
C2040      C2437   1.520       .  S
O2041      C2049   1.269       .  A
O2041     Co2061   2.021       .  S
O2042      C2050   1.301       .  A
O2042     Co2062   2.118       .  S
O2043      C2051   1.262       .  A
O2043     Co2063   1.988       .  S
O2044      C2052   1.256       .  A
O2044     Co2064   1.945       .  S
O2045      C2051   1.273       .  A
O2045     Co2062   2.030       .  S
O2046      C2052   1.282       .  A
O2046     Co2061   2.063       .  S
O2047      C2050   1.259       .  A
O2047     Co2064   1.891       .  S
O2048      C2049   1.267       .  A
O2048     Co2063   1.992       .  S
C2049      C2322   1.517       .  S
C2050      C2338   1.483       .  S
C2051      C2629   1.522       .  S
C2052      C2546   1.485       .  S
O2053      C2066   1.233       .  A
O2053     Co2061   1.935       .  S
O2054      C2067   1.261       .  A
O2054     Co2062   1.974       .  S
O2055      C2068   1.281       .  A
O2055     Co2063   2.081       .  S
O2056      C2069   1.293       .  A
O2056     Co2064   2.090       .  S
O2057      C2069   1.269       .  A
O2057     Co2062   1.897       .  S
O2058      C2068   1.238       .  A
O2058     Co2061   1.932       .  S
O2059      C2066   1.258       .  A
O2059     Co2064   2.044       .  S
O2060      C2067   1.277       .  A
O2060     Co2063   2.030       .  S
Co2061     O2065   2.012       .  S
Co2062     O2065   2.027       .  S
Co2063     O2065   2.069       .  S
Co2064     O2065   2.039       .  S
C2066      C2357   1.472       .  S
C2067      C2306   1.505       .  S
C2068      C2645   1.515       .  S
C2069      C2530   1.495       .  S
O2070      C2078   1.268       .  A
O2070     Co2090   1.985       .  S
O2071      C2079   1.259   1_455  A
O2071     Co2091   1.965   1_455  S
O2074      C2080   1.255       .  A
O2074     Co2091   1.965   1_455  S
O2075      C2081   1.274       .  A
O2075     Co2090   1.923       .  S
C2078      C2485   1.519       .  S
C2079      C2293   1.487       .  S
C2080      C2421   1.507       .  S
C2081      C2245   1.497       .  S
O2082      C2095   1.295       .  A
O2082     Co2090   2.113       .  S
O2083      C2096   1.276       .  A
O2083     Co2091   2.040       .  S
O2086      C2098   1.274   1_565  A
O2086     Co2091   2.021       .  S
O2087      C2097   1.280       .  A
O2087     Co2090   2.051       .  S
Co2090     O2094   2.031       .  S
Co2092     O2094   2.040       .  S
Co2093     O2094   2.012       .  S
C2095      C2274   1.492       .  S
C2096      C2469   1.518       .  S
C2097      C2405   1.517       .  S
C2098      C2258   1.493       .  S
O2099      C2107   1.270       .  A
O2099     Co2119   2.008       .  S
O2100      C2108   1.276   1_565  A
O2100     Co2120   2.036       .  S
O2103      C2109   1.276   1_565  A
O2103     Co2120   2.029       .  S
O2104      C2110   1.281       .  A
O2104     Co2119   2.084       .  S
C2107      C2165   1.486       .  S
C2108      C2226   1.495       .  S
C2109      C2594   1.500       .  S
C2110      C2181   1.486       .  S
O2111      C2124   1.273       .  A
O2111     Co2119   1.899       .  S
O2112      C2125   1.239   1_455  A
O2112     Co2120   1.934   1_455  S
O2113     Co2121   2.046       .  S
O2114     Co2122   1.945   1_565  S
O2115      C2127   1.249   1_455  A
O2115     Co2120   1.969   1_455  S
O2116      C2126   1.267       .  A
O2116     Co2119   1.980       .  S
O2117     Co2122   2.059       .  S
O2118     Co2121   2.074   1_565  S
Co2121     O2123   2.067       .  S
Co2122     O2123   2.051       .  S
C2124      C2210   1.462       .  S
C2125      C2146   1.508       .  S
C2126      C2613   1.505       .  S
C2127      C2194   1.437   1_655  S
C2128      C2129   1.407       .  A
C2128      C2133   1.396   1_455  A
C2128      C2290   1.477       .  S
C2129      C2130   1.400       .  A
C2129      C2197   1.474       .  S
C2130      C2131   1.399       .  A
C2130      H2135   1.086       .  S
C2131      C2132   1.424   1_455  A
C2132      C2133   1.402       .  A
C2133      H2134   1.085       .  S
C2136      C2137   1.413       .  A
C2136      C2141   1.397       .  A
C2138      H2143   1.087       .  S
C2139      C2140   1.420       .  A
C2139      C2213   1.469       .  S
C2140      C2141   1.399       .  A
C2140      C2242   1.501       .  S
C2141      H2142   1.085       .  S
C2144      C2149   1.606       .  S
C2144      C2325   1.619   1_455  S
C2145      C2146   1.403       .  A
C2145      C2150   1.425       .  A
C2145      H2152   1.084       .  S
C2147      C2154   1.524       .  S
C2147      C2148   1.406       .  A
C2148      H2153   1.075       .  S
C2149      C2150   1.454   1_455  A
C2150      C2151   1.523       .  S
C2151      F2155   1.379       .  S
C2151      F2156   1.383       .  S
C2151      F2157   1.378       .  S
C2154      F2158   1.384       .  S
C2154      F2159   1.375       .  S
C2154      F2160   1.384       .  S
C2161      C2162   1.420       .  A
C2161      C2166   1.403       .  A
C2161      H2168   1.066       .  S
C2163      C2170   1.530       .  S
C2163      C2164   1.428       .  A
C2164      H2169   1.086       .  S
C2165      C2166   1.399       .  A
C2166      C2167   1.520       .  S
C2167      F2171   1.384       .  S
C2167      F2172   1.382       .  S
C2167      F2173   1.380       .  S
C2170      F2174   1.382       .  S
C2170      F2175   1.362       .  S
C2170      F2176   1.386   1_655  S
C2177      C2182   1.407       .  A
C2177      H2184   1.084       .  S
C2178      C2179   1.409       .  A
C2179      C2186   1.518       .  S
C2179      C2180   1.411       .  A
C2180      C2181   1.415       .  A
C2180      H2185   1.083       .  S
C2182      C2183   1.515       .  S
C2183      F2187   1.382       .  S
C2183      F2188   1.379       .  S
C2183      F2189   1.379       .  S
C2186      F2190   1.377       .  S
C2186      F2191   1.374       .  S
C2186      F2192   1.383       .  S
C2193      C2198   1.396       .  A
C2193      H2200   1.086       .  S
C2194      C2195   1.407   1_455  A
C2195      C2202   1.523       .  S
C2195      C2196   1.389       .  A
C2196      C2197   1.404   1_655  A
C2196      H2201   1.083       .  S
C2198      C2199   1.513       .  S
C2199      F2203   1.384       .  S
C2199      F2204   1.379       .  S
C2199      F2205   1.383       .  S
C2202      F2206   1.381       .  S
C2202      F2207   1.378       .  S
C2202      F2208   1.383       .  S
C2209      C2210   1.397       .  A
C2209      C2214   1.401       .  A
C2209      H2216   1.083       .  S
C2210      C2211   1.417       .  A
C2211      C2218   1.521       .  S
C2211      C2212   1.403       .  A
C2212      C2213   1.400       .  A
C2212      H2217   1.083       .  S
C2213      C2214   1.420       .  A
C2214      C2215   1.522       .  S
C2215      F2219   1.385       .  S
C2215      F2220   1.382       .  S
C2218      F2222   1.384       .  S
C2225      C2226   1.407   1_565  A
C2225      C2230   1.401       .  A
C2225      H2232   1.080       .  S
C2226      C2227   1.421       .  A
C2227      C2228   1.409       .  A
C2228      C2229   1.403       .  A
C2229      C2230   1.416   1_545  A
C2230      C2231   1.518       .  S
C2231      F2235   1.383       .  S
C2231      F2236   1.380       .  S
C2234      F2239   1.383       .  S
C2234      F2240   1.379       .  S
C2241      H2248   1.077       .  S
C2242      C2243   1.424       .  A
C2243      C2250   1.518       .  S
C2243      C2244   1.404       .  A
C2244      C2245   1.397       .  A
C2244      H2249   1.077       .  S
C2245      C2246   1.428       .  A
C2247      F2253   1.377       .  S
C2250      F2254   1.383       .  S
C2250      F2256   1.384       .  S
C2257      C2258   1.411       .  A
C2257      C2262   1.408       .  A
C2257      H2264   1.082       .  S
C2258      C2259   1.424   1_545  A
C2259      C2266   1.522       .  S
C2259      C2260   1.404       .  A
C2260      C2261   1.403   1_565  A
C2261      C2262   1.414       .  A
C2262      C2263   1.517       .  S
C2263      F2269   1.380       .  S
C2266      F2271   1.383       .  S
C2266      F2272   1.385       .  S
C2273      C2278   1.409       .  A
C2273      H2280   1.084       .  S
C2274      C2275   1.430       .  A
C2275      C2282   1.526       .  S
C2275      C2276   1.401       .  A
C2276      C2277   1.402       .  A
C2276      H2281   1.084       .  S
C2278      C2279   1.516       .  S
C2279      F2283   1.383       .  S
C2279      F2284   1.383       .  S
C2279      F2285   1.381       .  S
C2282      F2286   1.378       .  S
C2282      F2287   1.371       .  S
C2282      F2288   1.386       .  S
C2289      C2290   1.403   1_655  A
C2289      C2294   1.408       .  A
C2289      H2296   1.083       .  S
C2291      C2298   1.523       .  S
C2291      C2292   1.394       .  A
C2292      H2297   1.085       .  S
C2293      C2294   1.424       .  A
C2294      C2295   1.515       .  S
C2295      F2299   1.384       .  S
C2295      F2300   1.379       .  S
C2295      F2301   1.373       .  S
C2298      F2302   1.384       .  S
C2298      F2303   1.381       .  S
C2298      F2304   1.383       .  S
C2305      C2306   1.400       .  A
C2305      C2310   1.409       .  A
C2305      H2312   1.084       .  S
C2306      C2307   1.421       .  A
C2307      C2314   1.520       .  S
C2307      C2308   1.414       .  A
C2308      C2309   1.419       .  A
C2308      H2313   1.073       .  S
C2309      C2310   1.449       .  A
C2310      C2311   1.526       .  S
C2311      F2315   1.383       .  S
C2311      F2316   1.371       .  S
C2311      F2317   1.386       .  S
C2314      F2318   1.382       .  S
C2314      F2319   1.384       .  S
C2314      F2320   1.385       .  S
C2321      C2322   1.406       .  A
C2321      C2326   1.414       .  A
C2321      H2328   1.085       .  S
C2322      C2323   1.429       .  A
C2323      C2330   1.523       .  S
C2323      C2324   1.423       .  A
C2324      C2325   1.423       .  A
C2324      H2329   1.080       .  S
C2325      C2326   1.434       .  A
C2326      C2327   1.522       .  S
C2327      F2331   1.383       .  S
C2327      F2332   1.380       .  S
C2327      F2333   1.380   1_655  S
C2330      F2334   1.383       .  S
C2330      F2335   1.383       .  S
C2330      F2336   1.385       .  S
C2337      C2338   1.402       .  A
C2337      C2342   1.411       .  A
C2337      H2344   1.083       .  S
C2338      C2339   1.418       .  A
C2339      C2346   1.514       .  S
C2339      C2340   1.407       .  A
C2340      C2341   1.402       .  A
C2340      H2345   1.079       .  S
C2341      C2342   1.417       .  A
C2342      C2343   1.515       .  S
C2343      F2347   1.380       .  S
C2343      F2348   1.380       .  S
C2343      F2349   1.381       .  S
C2346      F2350   1.377       .  S
C2346      F2351   1.382       .  S
C2346      F2352   1.385       .  S
C2353      C2354   1.399       .  A
C2353      C2358   1.398       .  A
C2353      H2360   1.085       .  S
C2354      C2355   1.409       .  A
C2355      C2362   1.524       .  S
C2355      C2356   1.394       .  A
C2356      C2357   1.400       .  A
C2356      H2361   1.071       .  S
C2357      C2358   1.419       .  A
C2358      C2359   1.521       .  S
C2359      F2363   1.385       .  S
C2359      F2364   1.377       .  S
C2359      F2365   1.376       .  S
C2362      F2366   1.382       .  S
C2362      F2367   1.381       .  S
C2362      F2368   1.383       .  S
C2369      C2370   1.398       .  A
C2369      C2374   1.398       .  A
C2369      H2376   1.079       .  S
C2370      C2371   1.425       .  A
C2371      C2378   1.519       .  S
C2371      C2372   1.410       .  A
C2372      C2373   1.403       .  A
C2372      H2377   1.084       .  S
C2373      C2374   1.409       .  A
C2374      C2375   1.506       .  S
C2375      F2379   1.385       .  S
C2375      F2380   1.381       .  S
C2375      F2381   1.384       .  S
C2378      F2382   1.383       .  S
C2378      F2383   1.381       .  S
C2378      F2384   1.383       .  S
C2385      C2386   1.406       .  A
C2385      C2390   1.407       .  A
C2385      H2392   1.079       .  S
C2386      C2387   1.420       .  A
C2387      C2394   1.519       .  S
C2387      C2388   1.401       .  A
C2388      C2389   1.399       .  A
C2388      H2393   1.085       .  S
C2389      C2390   1.412       .  A
C2390      C2391   1.513       .  S
C2391      F2395   1.385       .  S
C2391      F2396   1.383       .  S
C2391      F2397   1.379       .  S
C2394      F2398   1.381       .  S
C2394      F2399   1.383       .  S
C2394      F2400   1.384       .  S
C2401      C2402   1.432       .  A
C2401      C2406   1.410       .  A
C2402      C2403   1.457       .  A
C2403      C2410   1.527       .  S
C2403      C2404   1.436       .  A
C2404      C2405   1.405       .  A
C2404      H2409   1.076       .  S
C2405      C2406   1.407       .  A
C2407      F2413   1.383   1_455  S
C2410      F2414   1.379       .  S
C2410      F2416   1.386       .  S
C2417      C2422   1.418       .  A
C2417      H2424   1.066       .  S
C2418      C2419   1.468   1_455  A
C2419      C2426   1.532       .  S
C2419      C2420   1.420       .  A
C2420      C2421   1.391   1_655  A
C2420      H2425   1.086       .  S
C2422      C2423   1.519       .  S
C2423      F2427   1.383       .  S
C2423      F2428   1.382       .  S
C2423      F2429   1.383       .  S
C2426      F2430   1.365       .  S
C2426      F2431   1.382       .  S
C2426      F2432   1.387       .  S
C2433      C2434   1.435       .  A
C2433      C2438   1.411       .  A
C2433      H2440   1.080       .  S
C2434      C2435   1.453       .  A
C2435      C2442   1.525       .  S
C2435      C2436   1.425       .  A
C2436      C2437   1.406       .  A
C2436      H2441   1.081       .  S
C2437      C2438   1.415       .  A
C2438      C2439   1.524       .  S
C2439      F2443   1.383       .  S
C2439      F2444   1.380       .  S
C2439      F2445   1.379       .  S
C2442      F2446   1.374       .  S
C2442      F2447   1.373       .  S
C2442      F2448   1.386       .  S
C2449      C2450   1.422       .  A
C2449      C2454   1.423       .  A
C2449      H2456   1.081       .  S
C2450      C2451   1.457       .  A
C2451      C2458   1.527       .  S
C2451      C2452   1.418       .  A
C2452      C2453   1.392       .  A
C2452      H2457   1.083       .  S
C2453      C2454   1.421       .  A
C2454      C2455   1.513       .  S
C2455      F2459   1.384       .  S
C2455      F2460   1.377       .  S
C2455      F2461   1.382       .  S
C2458      F2462   1.376       .  S
C2458      F2463   1.367       .  S
C2458      F2464   1.386       .  S
C2465      C2466   1.440   1_545  A
C2465      C2470   1.411       .  A
C2465      H2472   1.073       .  S
C2466      C2467   1.451       .  A
C2467      C2474   1.515       .  S
C2467      C2468   1.428       .  A
C2468      C2469   1.406       .  A
C2468      H2473   1.084       .  S
C2469      C2470   1.414   1_565  A
C2470      C2471   1.527       .  S
C2471      F2477   1.383       .  S
C2474      F2479   1.359       .  S
C2474      F2480   1.384       .  S
C2481      C2482   1.417       .  A
C2481      C2486   1.417       .  A
C2481      H2488   1.073       .  S
C2482      C2483   1.456       .  A
C2483      C2490   1.533       .  S
C2483      C2484   1.412       .  A
C2484      C2485   1.399       .  A
C2484      H2489   1.081       .  S
C2485      C2486   1.423       .  A
C2486      C2487   1.512       .  S
C2487      F2491   1.385       .  S
C2487      F2492   1.379       .  S
C2490      F2494   1.380       .  S
C2497      C2498   1.402       .  A
C2497      C2502   1.436       .  A
C2497      H2504   1.082       .  S
C2498      C2499   1.402       .  A
C2499      C2506   1.514       .  S
C2499      C2500   1.403       .  A
C2500      C2501   1.433       .  A
C2500      H2505   1.081       .  S
C2501      C2502   1.462       .  A
C2502      C2503   1.532       .  S
C2503      F2507   1.386       .  S
C2503      F2508   1.379       .  S
C2503      F2509   1.375       .  S
C2506      F2510   1.383       .  S
C2506      F2511   1.382       .  S
C2506      F2512   1.385       .  S
C2513      C2514   1.424       .  A
C2513      C2518   1.414       .  A
C2513      H2520   1.076       .  S
C2514      C2515   1.482       .  A
C2515      C2522   1.546       .  S
C2515      C2516   1.427       .  A
C2516      C2517   1.386       .  A
C2516      H2521   1.082       .  S
C2517      C2518   1.410       .  A
C2518      C2519   1.517       .  S
C2519      F2523   1.385       .  S
C2519      F2524   1.377       .  S
C2519      F2525   1.383       .  S
C2522      F2526   1.371       .  S
C2522      F2527   1.374       .  S
C2522      F2528   1.386       .  S
C2529      C2530   1.403       .  A
C2529      C2534   1.401       .  A
C2529      H2536   1.082       .  S
C2530      C2531   1.424       .  A
C2531      C2538   1.497       .  S
C2531      C2532   1.403       .  A
C2532      C2533   1.389       .  A
C2532      H2537   1.084       .  S
C2533      C2534   1.424       .  A
C2534      C2535   1.521       .  S
C2535      F2539   1.383       .  S
C2535      F2540   1.382       .  S
C2535      F2541   1.376       .  S
C2538      F2542   1.381       .  S
C2538      F2543   1.383       .  S
C2538      F2544   1.385       .  S
C2545      C2546   1.403       .  A
C2545      C2550   1.408       .  A
C2545      H2552   1.077       .  S
C2546      C2547   1.412       .  A
C2547      C2554   1.522       .  S
C2547      C2548   1.414       .  A
C2548      C2549   1.417       .  A
C2548      H2553   1.081       .  S
C2549      C2550   1.419       .  A
C2550      C2551   1.514       .  S
C2551      F2555   1.384       .  S
C2551      F2556   1.380   1_554  S
C2551      F2557   1.381   1_554  S
C2554      F2558   1.383       .  S
C2554      F2559   1.379       .  S
C2554      F2560   1.380       .  S
C2561      C2562   1.418       .  A
C2561      C2566   1.408       .  A
C2561      H2568   1.084       .  S
C2562      C2563   1.423       .  A
C2563      C2570   1.518       .  S
C2563      C2564   1.414       .  A
C2564      C2565   1.406       .  A
C2564      H2569   1.080       .  S
C2565      C2566   1.407       .  A
C2566      C2567   1.518       .  S
C2567      F2571   1.385       .  S
C2567      F2572   1.383       .  S
C2567      F2573   1.382       .  S
C2570      F2574   1.380   1_556  S
C2570      F2575   1.375   1_556  S
C2570      F2576   1.380       .  S
C2577      C2578   1.408       .  A
C2577      C2582   1.407       .  A
C2577      H2584   1.078       .  S
C2578      C2579   1.418       .  A
C2579      C2586   1.521       .  S
C2579      C2580   1.397       .  A
C2580      C2581   1.405       .  A
C2580      H2585   1.085       .  S
C2581      C2582   1.408       .  A
C2582      C2583   1.517       .  S
C2583      F2587   1.380       .  S
C2583      F2588   1.383       .  S
C2583      F2589   1.382       .  S
C2586      F2590   1.382       .  S
C2586      F2591   1.381       .  S
C2586      F2592   1.385       .  S
C2593      C2594   1.395   1_565  A
C2593      C2598   1.403       .  A
C2593      H2600   1.086       .  S
C2595      C2602   1.515       .  S
C2595      C2596   1.423       .  A
C2596      H2601   1.073       .  S
C2597      C2598   1.451       .  A
C2598      C2599   1.533       .  S
C2599      F2603   1.388       .  S
C2599      F2604   1.371       .  S
C2599      F2605   1.380       .  S
C2602      F2606   1.383       .  S
C2602      F2607   1.383       .  S
C2602      F2608   1.384       .  S
C2609      C2610   1.439       .  A
C2609      C2614   1.413       .  A
C2609      H2616   1.074       .  S
C2611      C2618   1.529       .  S
C2611      C2612   1.426       .  A
C2612      H2617   1.081       .  S
C2613      C2614   1.404       .  A
C2614      C2615   1.524       .  S
C2615      F2619   1.385       .  S
C2615      F2620   1.382       .  S
C2618      F2623   1.375       .  S
C2618      F2624   1.386       .  S
C2625      C2626   1.433       .  A
C2625      C2630   1.412       .  A
C2625      H2632   1.066       .  S
C2626      C2627   1.461       .  A
C2627      C2634   1.526       .  S
C2627      C2628   1.428       .  A
C2628      C2629   1.401       .  A
C2628      H2633   1.082       .  S
C2629      C2630   1.417       .  A
C2630      C2631   1.528       .  S
C2631      F2635   1.385       .  S
C2631      F2636   1.383       .  S
C2631      F2637   1.384       .  S
C2634      F2638   1.379       .  S
C2634      F2639   1.369       .  S
C2634      F2640   1.386       .  S
C2641      C2642   1.410       .  A
C2641      C2646   1.412       .  A
C2641      H2648   1.076       .  S
C2642      C2643   1.456       .  A
C2643      C2650   1.533       .  S
C2643      C2644   1.421       .  A
C2644      C2645   1.396       .  A
C2644      H2649   1.082       .  S
C2645      C2646   1.437       .  A
C2646      C2647   1.528       .  S
C2647      F2651   1.385       .  S
C2647      F2652   1.383       .  S
C2647      F2653   1.383       .  S
C2650      F2654   1.380       .  S
C2650      F2655   1.368       .  S
C2650      F2656   1.385       .  S
