geometry optimzed in LAMMPS
_audit_creation_date              2020-12-01 
_audit_creation_method            'lammps2cif' 
_symmetry_space_group_name_H-M    'P1' 
_symmetry_Int_Tables_number       1 
_symmetry_cell_setting            triclinic 
loop_ 
_symmetry_equiv_pos_as_xyz 
  x,y,z 
_cell_length_a                    41.75849952 
_cell_length_b                    41.84844920853901 
_cell_length_c                    55.22867448040379 
_cell_angle_alpha                 89.8774196341974 
_cell_angle_beta                  89.86896317084233 
_cell_angle_gamma                 90.0738144235574 
loop_ 
_atom_site_label 
_atom_site_type_symbol 
_atom_site_fract_x 
_atom_site_fract_y 
_atom_site_fract_z 
_atom_site_charge 
N1          N  0.43450064  0.50520834  0.10237130    -0.27300
N2          N  0.45023145  0.50542213  0.08155532    -0.35100
C3          C  0.42893899  0.50461702  0.06328695     0.01100
C4          C  0.39847295  0.50333059  0.07314169     0.07100
C5          C  0.40287471  0.50391626  0.09792981    -0.06000
H6          H  0.43516407  0.50463971  0.04425938     0.07800
H7          H  0.38446717  0.00387733  0.11174405     0.09000
Cu8        Cu  0.49997780  0.50610885  0.07913611     0.44200
Cu9        Cu  0.45651176  0.00684480  0.13595728     0.42000
Cu10       Cu  0.04287300  0.01085359  0.13625089     0.43900
N11         N  0.04967508  0.50684800  0.08194949    -0.34700
N12         N  0.06511586  0.50938250  0.10274609    -0.28900
C13         C  0.09681702  0.50924787  0.09845865    -0.05000
C14         C  0.10159553  0.50649924  0.07378649     0.07200
C15         C  0.07124797  0.50473374  0.06387382     0.01000
H16         H  0.11498280  0.51009989  0.11237402     0.08700
H17         H  0.06530215  0.50212473  0.04492351     0.07700
N18         N  0.01533909  0.00819977  0.16738653    -0.36100
N19         N  0.48373775  0.00658089  0.16729121    -0.28300
C20         C  0.47315313  0.00412690  0.19023100    -0.03500
C21         C  0.99941874  0.00381519  0.20549598     0.05100
C22         C  0.02572543  0.00683398  0.19038037     0.03200
H23         H  0.44815057  0.00335942  0.19528246     0.08300
H24         H  0.05064025  0.00752622  0.19569278     0.07100
N25         N  0.99438479  0.43362024  0.41321390    -0.27300
N26         N  0.99719373  0.44929686  0.43388166    -0.35100
C27         C  0.99963881  0.42809708  0.45212824     0.01100
C28         C  0.99795715  0.39766989  0.44249491     0.07100
C29         C  0.99438667  0.40204393  0.41782761    -0.06000
H30         H  0.00204821  0.43438480  0.47102978     0.07800
H31         H  0.99271077  0.38361970  0.40417424     0.09000
Cu32       Cu  0.99715912  0.49875249  0.43660838     0.44200
Cu33       Cu  0.99335895  0.45551253  0.37944359     0.42000
Cu34       Cu  0.00344646  0.04129338  0.38007138     0.43900
N35         N  0.99813907  0.04822616  0.43412946    -0.34700
N36         N  0.00170688  0.06364350  0.41338128    -0.28900
C37         C  0.00286248  0.09520784  0.41769055    -0.05000
C38         C  0.99955564  0.09989594  0.44231934     0.07200
C39         C  0.99638589  0.06965940  0.45221759     0.01000
H40         H  0.00543987  0.11340214  0.40387340     0.08700
H41         H  0.99362436  0.06366798  0.47117577     0.07700
N42         N  0.00208405  0.01441984  0.34873493    -0.36100
N43         N  0.99802195  0.48311373  0.34834083    -0.28300
C44         C  0.99793273  0.47322886  0.32517634    -0.03500
C45         C  0.00234936  0.49959464  0.31026439     0.05100
C46         C  0.00462742  0.02530609  0.32591840     0.03200
H47         H  0.99507667  0.44861457  0.31963139     0.08300
H48         H  0.00715338  0.05026697  0.32118007     0.07100
C49         C  0.99998947  0.27772449  0.49485138     0.02300
C50         C  0.50123032  0.27737266  0.52048724     0.02300
C51         C  0.50226368  0.24799546  0.53273651    -0.18200
C52         C  0.50255237  0.21894726  0.52011184     0.02300
C53         C  0.99976826  0.21927090  0.49456958     0.02300
C54         C  0.99928382  0.24861810  0.48225487    -0.18200
H55         H  0.99819017  0.24877471  0.46264332     0.04300
H56         H  0.50238038  0.24764680  0.55235387     0.04300
N57         N  0.06560972  0.48164257  0.91255573    -0.27300
N58         N  0.05016248  0.48783416  0.93293605    -0.35100
C59         C  0.07151281  0.49077039  0.95098119     0.01100
C60         C  0.10181851  0.48574972  0.94159145     0.07100
C61         C  0.09719800  0.48001566  0.91717362    -0.06000
H62         H  0.06544640  0.49641474  0.96954200     0.07800
H63         H  0.11551587  0.47639333  0.90357360     0.09000
Cu64       Cu  0.50082024  0.49232524  0.93536974     0.44200
Cu65       Cu  0.04332184  0.47934730  0.87904540     0.42000
Cu66       Cu  0.45709701  0.49051254  0.87904160     0.43900
N67         N  0.45125694  0.49320463  0.93336785    -0.34700
N68         N  0.43520846  0.49265509  0.91276747    -0.28900
C69         C  0.40363781  0.49317791  0.91766462    -0.05000
C70         C  0.39965832  0.49361954  0.94253730     0.07200
C71         C  0.43035626  0.49390562  0.95191937     0.01000
H72         H  0.38494713  0.49282999  0.90413303     0.08700
H73         H  0.43713184  0.49504843  0.97078236     0.07700
N74         N  0.48470898  0.48792177  0.84782605    -0.36100
N75         N  0.01606045  0.48356814  0.84781194    -0.28300
C76         C  0.02669547  0.48357890  0.82480376    -0.03500
C77         C  0.50072789  0.48779986  0.80955716     0.05100
C78         C  0.47457965  0.49078491  0.82482915     0.03200
H79         H  0.05164339  0.48178150  0.81976151     0.08300
H80         H  0.44994118  0.49469904  0.81959276     0.07100
N81         N  0.49998299  0.06316051  0.60222053    -0.27300
N82         N  0.50054428  0.04790118  0.58126488    -0.35100
C83         C  0.50160937  0.06951929  0.56320078     0.01100
C84         C  0.50125808  0.09972873  0.57330133     0.07100
C85         C  0.50050574  0.09480035  0.59804430    -0.06000
H86         H  0.50213797  0.06369112  0.54412600     0.07800
H87         H  0.50077873  0.11279913  0.61206170     0.09000
Cu88       Cu  0.49929508  0.49847392  0.57801615     0.44200
Cu89       Cu  0.49842657  0.04102772  0.63582054     0.42000
Cu90       Cu  0.49870435  0.45524568  0.63473805     0.43900
N91         N  0.49817380  0.44895478  0.58039849    -0.34700
N92         N  0.49861307  0.43329508  0.60121858    -0.28900
C93         C  0.49816288  0.40172438  0.59682960    -0.05000
C94         C  0.49686882  0.39730975  0.57209193     0.07200
C95         C  0.49713893  0.42769323  0.56216083     0.01000
H96         H  0.49840460  0.38335251  0.61064066     0.08700
H97         H  0.49680291  0.43385609  0.54312639     0.07700
N98         N  0.49709461  0.48162905  0.66634272    -0.36100
N99         N  0.49679360  0.01317605  0.66688278    -0.28300
C100        C  0.49604023  0.02287377  0.69009684    -0.03500
C101        C  0.49580533  0.49604574  0.70489465     0.05100
C102        C  0.49660801  0.47037120  0.68912726     0.03200
H103        H  0.49660399  0.04761167  0.69570921     0.08300
H104        H  0.49692866  0.44527014  0.69384421     0.07100
C105        C  0.27928210  0.49893085  0.99460057     0.02300
C106        C  0.27915786  0.50086164  0.02018567     0.02300
C107        C  0.24990702  0.50020037  0.03269302    -0.18200
C108        C  0.22061910  0.49842950  0.02033341     0.02300
C109        C  0.22062708  0.49802866  0.99463751     0.02300
C110        C  0.25000641  0.49772791  0.98218454    -0.18200
H111        H  0.25007043  0.49632445  0.96258453     0.04300
H112        H  0.24994194  0.50119103  0.05231389     0.04300
C113        C  0.13733870  0.01552414  0.96953560    -0.26300
C114        C  0.13258278  0.48896400  0.95454275    -0.14400
C115        C  0.15732687  0.46638195  0.95178743     0.36300
C116        C  0.18594023  0.47032491  0.96480442    -0.25700
C117        C  0.19051096  0.49656683  0.98027650    -0.15000
C118        C  0.16629022  0.02021475  0.98177679     0.37300
N119        N  0.17072372  0.04999498  0.99424839    -0.89200
H120        H  0.11878542  0.03351238  0.97101331     0.18500
H121        H  0.20455789  0.45240727  0.96334400     0.18500
N122        N  0.15304218  0.43919330  0.93626017    -0.88300
H123        H  0.15450729  0.05074220  0.00867755     0.35800
H124        H  0.19379985  0.05228467  0.00122261     0.40900
H125        H  0.13469409  0.42519436  0.94363380     0.40500
H126        H  0.17363127  0.42498811  0.93613378     0.35400
C127        C  0.34629457  0.51774634  0.94989881    -0.26300
C128        C  0.36901330  0.49440227  0.95595450    -0.14400
C129        C  0.36161196  0.47180340  0.97420718     0.36300
C130        C  0.33199552  0.47317197  0.98601437    -0.25700
C131        C  0.30972658  0.49723428  0.98060916    -0.15000
C132        C  0.31694530  0.51958655  0.96226069     0.37300
N133        N  0.29494445  0.54474855  0.95665399    -0.89200
H134        H  0.35166595  0.53511557  0.93587571     0.18500
H135        H  0.32638731  0.95537907  0.99966319     0.18500
N136        N  0.38317464  0.94659369  0.98061273    -0.88300
H137        H  0.28908130  0.54306775  0.93831143     0.35800
H138        H  0.30663175  0.56656356  0.95936244     0.41100
H139        H  0.40397135  0.45657819  0.98784380     0.40500
H140        H  0.38906756  0.43386652  0.96496740     0.35400
C141        C  0.48264877  0.01444081  0.77175729    -0.26300
C142        C  0.50051500  0.49002503  0.78278222    -0.14400
C143        C  0.01621656  0.46735236  0.76799369     0.36300
C144        C  0.01415601  0.46986505  0.74281139    -0.25700
C145        C  0.49679793  0.49457445  0.73172512    -0.15000
C146        C  0.48053894  0.01695522  0.74639113     0.37300
N147        N  0.46128454  0.04157849  0.73558466    -0.89200
H148        H  0.47015122  0.03156579  0.78302235     0.18500
H149        H  0.02654872  0.45237364  0.73181508     0.18500
N150        N  0.03330565  0.44072414  0.77789460    -0.88300
H151        H  0.45105093  0.05607548  0.74890528     0.35800
H152        H  0.44231599  0.03041337  0.72660118     0.40900
H153        H  0.01817004  0.42833346  0.78974602     0.40500
H154        H  0.05314708  0.44913950  0.78739683     0.35400
C155        C  0.47941769  0.18262031  0.55099915    -0.26300
C156        C  0.50399674  0.18866643  0.53422612    -0.14400
C157        C  0.02864809  0.16566697  0.53119511     0.36300
C158        C  0.02675773  0.13660914  0.54381127    -0.25700
C159        C  0.50193905  0.13058620  0.56033477    -0.15000
C160        C  0.47818177  0.15405239  0.56407313     0.37300
N161        N  0.45175612  0.14903547  0.58022319    -0.89200
H162        H  0.46051018  0.20002983  0.55353436     0.18500
H163        H  0.04542521  0.11894594  0.54125355     0.18500
N164        N  0.05664174  0.17144119  0.51662886    -0.88300
H165        H  0.46046333  0.14662039  0.59783021     0.35800
H166        H  0.44006964  0.12792912  0.57530015     0.40900
H167        H  0.05685860  0.19443524  0.50932862     0.40500
H168        H  0.05648399  0.15515623  0.50229718     0.35400
C169        C  0.47320226  0.32762669  0.53187924    -0.26300
C170        C  0.49971260  0.30738774  0.53478909    -0.14400
C171        C  0.02488162  0.31686021  0.55029960     0.36300
C172        C  0.02288877  0.34600153  0.56253274    -0.25700
C173        C  0.49673237  0.36650885  0.55920792    -0.15000
C174        C  0.47149504  0.35720198  0.54363575     0.37300
N175        N  0.44344053  0.37643374  0.53979703    -0.89200
H176        H  0.45372926  0.32047297  0.52012256     0.18500
H177        H  0.04240987  0.35313351  0.57425714     0.18500
N178        N  0.05341603  0.29823220  0.55307005    -0.88300
H179        H  0.44367491  0.38396460  0.52173170     0.35800
H180        H  0.44332282  0.39688470  0.55053518     0.40900
H181        H  0.06326386  0.29412180  0.53594216     0.40500
H182        H  0.04759576  0.27632485  0.56100059     0.35400
C183        C  0.47407262  0.13763695  0.47104727    -0.26300
C184        C  0.99937849  0.13069571  0.45522560    -0.14400
C185        C  0.02380967  0.15343621  0.45145974     0.36300
C186        C  0.02262140  0.18262719  0.46390155    -0.25700
C187        C  0.99779125  0.18931007  0.48028600    -0.15000
C188        C  0.47251862  0.16694007  0.48320419     0.37300
N189        N  0.44435032  0.17356902  0.49733546    -0.89200
H190        H  0.45484589  0.12048113  0.47344071     0.18500
H191        H  0.04180471  0.19982770  0.46152435     0.18500
N192        N  0.05019282  0.14639920  0.43558438    -0.88300
H193        H  0.44383168  0.15756122  0.51188276     0.35800
H194        H  0.44455207  0.19667595  0.50438014     0.40900
H195        H  0.06280998  0.12724763  0.44312091     0.40500
H196        H  0.06612407  0.16566933  0.43481184     0.35400
C197        C  0.47541730  0.34404214  0.45137299    -0.26300
C198        C  0.99922345  0.36696818  0.45567558    -0.14400
C199        C  0.02371470  0.36040403  0.47249157     0.36300
C200        C  0.02388206  0.33089597  0.48467022    -0.25700
C201        C  0.99959317  0.30820825  0.48087447    -0.15000
C202        C  0.47496369  0.31496496  0.46414940     0.37300
N203        N  0.44927692  0.29256873  0.46057893    -0.89200
H204        H  0.45656359  0.34929235  0.43851888     0.18500
H205        H  0.04301743  0.32554538  0.49724322     0.18500
N206        N  0.04855603  0.38348774  0.47684127    -0.88300
H207        H  0.43314339  0.30114257  0.44766710     0.35800
H208        H  0.43662597  0.29078790  0.47689180     0.40900
H209        H  0.06159519  0.38614541  0.46077727     0.40500
H210        H  0.06458459  0.37504312  0.48988559     0.35400
C211        C  0.18452777  0.02535488  0.04952333    -0.26300
C212        C  0.19053038  0.49864977  0.03483358    -0.14400
C213        C  0.16759103  0.47362684  0.03405090     0.36300
C214        C  0.13860528  0.47705516  0.04666499    -0.25700
C215        C  0.13247208  0.50410420  0.06086438    -0.15000
C216        C  0.15586697  0.02837415  0.06241619     0.37300
N217        N  0.15061086  0.05698212  0.07604654    -0.89200
H218        H  0.20191706  0.04457742  0.05035002     0.18500
H219        H  0.12098365  0.45804743  0.04582288     0.18500
N220        N  0.17327234  0.44400151  0.02164984    -0.88300
H221        H  0.14773980  0.05092654  0.09427144     0.35800
H222        H  0.12955435  0.06773673  0.06988982     0.40900
H223        H  0.19627420  0.44293936  0.01430653     0.40500
H224        H  0.15693453  0.44242769  0.00738585     0.35400
C225        C  0.31712425  0.47748236  0.04975834    -0.26300
C226        C  0.30930822  0.50301383  0.03435340    -0.14400
C227        C  0.33085959  0.02911295  0.03215217     0.36300
C228        C  0.36005242  0.02825732  0.04464151    -0.25700
C229        C  0.36775363  0.50269636  0.05998374    -0.15000
C230        C  0.34593721  0.47711773  0.06260625     0.37300
N231        N  0.35290836  0.44997389  0.07752112    -0.89200
H232        H  0.30089603  0.45735851  0.05146075     0.18500
H233        H  0.37654164  0.04815209  0.04283081     0.18500
N234        N  0.32360901  0.05723528  0.01821502    -0.88300
H235        H  0.35548684  0.45761886  0.09539346     0.35800
H236        H  0.37459002  0.44007378  0.07173936     0.40900
H237        H  0.30054573  0.05651816  0.01102903     0.40500
H238        H  0.33970765  0.05824368  0.00370972     0.35400
C239        C  0.01952384  0.02344745  0.24490872    -0.26300
C240        C  0.99984311  0.50208569  0.23224933    -0.14400
C241        C  0.48229798  0.47882121  0.24534560     0.36300
C242        C  0.48394931  0.47818852  0.27063347    -0.25700
C243        C  0.00275716  0.50027543  0.28339578    -0.15000
C244        C  0.02133632  0.02273531  0.27030988     0.37300
N245        N  0.04250213  0.04426053  0.28272735    -0.89200
H246        H  0.03354919  0.04084631  0.23489764     0.18500
H247        H  0.46993601  0.46053089  0.28037561     0.18500
N248        N  0.46357138  0.45477724  0.23354969    -0.88300
H249        H  0.05428707  0.05927023  0.27044780     0.35800
H250        H  0.06019408  0.03047861  0.29110342     0.40900
H251        H  0.47806651  0.44287753  0.22103404     0.40500
H252        H  0.44461957  0.46568497  0.22446264     0.35400
N253        N  0.43450067  0.00520837  0.10237127    -0.27300
N254        N  0.45023148  0.00542205  0.08155532    -0.35100
C255        C  0.42893903  0.00461694  0.06328695     0.01100
C256        C  0.39847291  0.00333060  0.07314163     0.07100
C257        C  0.40287474  0.00391627  0.09792977    -0.06000
H258        H  0.43516420  0.00463954  0.04425941     0.07800
H259        H  0.38446712  0.50387683  0.11174409     0.09000
Cu260      Cu  0.49997783  0.00610877  0.07913612     0.44200
Cu261      Cu  0.45651173  0.50684486  0.13595730     0.42000
Cu262      Cu  0.04287295  0.51085365  0.13625087     0.43900
N263        N  0.04967524  0.00684792  0.08194959    -0.34700
N264        N  0.06511615  0.00938251  0.10274620    -0.28900
C265        C  0.09681734  0.00924790  0.09845878    -0.05000
C266        C  0.10159564  0.00649933  0.07378661     0.07200
C267        C  0.07124809  0.00473371  0.06387392     0.01000
H268        H  0.11498326  0.01010040  0.11237408     0.08700
H269        H  0.06530230  0.00212464  0.04492360     0.07700
N270        N  0.01533930  0.50819984  0.16738661    -0.36100
N271        N  0.48373766  0.50658095  0.16729135    -0.28300
C272        C  0.47315287  0.50412700  0.19023108    -0.03500
C273        C  0.99941897  0.50381521  0.20549601     0.05100
C274        C  0.02572580  0.50683404  0.19038042     0.03200
H275        H  0.44815020  0.50335955  0.19528244     0.08300
H276        H  0.05064070  0.50752628  0.19569273     0.07100
N277        N  0.99438473  0.93362025  0.41321393    -0.27300
N278        N  0.99719380  0.94929685  0.43388167    -0.35100
C279        C  0.99963876  0.92809710  0.45212827     0.01100
C280        C  0.99795707  0.89766996  0.44249492     0.07100
C281        C  0.99438668  0.90204396  0.41782764    -0.06000
H282        H  0.00204813  0.93438482  0.47102982     0.07800
H283        H  0.99271071  0.88361974  0.40417429     0.09000
Cu284      Cu  0.99715925  0.99875247  0.43660839     0.44200
Cu285      Cu  0.99335890  0.95551243  0.37944358     0.42000
Cu286      Cu  0.00344640  0.54129342  0.38007136     0.43900
N287        N  0.99813915  0.54822615  0.43412944    -0.34700
N288        N  0.00170681  0.56364350  0.41338127    -0.28900
C289        C  0.00286260  0.59520784  0.41769060    -0.05000
C290        C  0.99955577  0.59989601  0.44231935     0.07200
C291        C  0.99638597  0.56965943  0.45221755     0.01000
H292        H  0.00543953  0.61340221  0.40387346     0.08700
H293        H  0.99362478  0.56366798  0.47117574     0.07700
N294        N  0.00208415  0.51442011  0.34873483    -0.36100
N295        N  0.99802198  0.98311351  0.34834090    -0.28300
C296        C  0.99793277  0.97322872  0.32517636    -0.03500
C297        C  0.00234942  0.99959445  0.31026439     0.05100
C298        C  0.00462736  0.52530652  0.32591834     0.03200
H299        H  0.99507711  0.94861440  0.31963141     0.08300
H300        H  0.00715375  0.55026744  0.32118013     0.07100
C301        C  0.99998944  0.77772454  0.49485134     0.02300
C302        C  0.50123030  0.77737269  0.52048719     0.02300
C303        C  0.50226365  0.74799556  0.53273649    -0.18200
C304        C  0.50255236  0.71894733  0.52011186     0.02300
C305        C  0.99976837  0.71927097  0.49456956     0.02300
C306        C  0.99928389  0.74861821  0.48225485    -0.18200
H307        H  0.99819041  0.74877507  0.46264330     0.04300
H308        H  0.50238029  0.74764709  0.55235385     0.04300
N309        N  0.06560976  0.98164254  0.91255569    -0.27300
N310        N  0.05016252  0.98783410  0.93293600    -0.35100
C311        C  0.07151289  0.99077029  0.95098112     0.01100
C312        C  0.10181855  0.98574958  0.94159138     0.07100
C313        C  0.09719805  0.98001560  0.91717356    -0.06000
H314        H  0.06544654  0.99641425  0.96954200     0.07800
H315        H  0.11551589  0.97639293  0.90357358     0.09000
Cu316      Cu  0.50082028  0.99232509  0.93536974     0.44200
Cu317      Cu  0.04332190  0.97934736  0.87904537     0.42000
Cu318      Cu  0.45709708  0.99051238  0.87904161     0.43900
N319        N  0.45125685  0.99320464  0.93336775    -0.34700
N320        N  0.43520822  0.99265491  0.91276736    -0.28900
C321        C  0.40363753  0.99317791  0.91766445    -0.05000
C322        C  0.39965822  0.99361957  0.94253714     0.07200
C323        C  0.43035622  0.99390563  0.95191927     0.01000
H324        H  0.38494672  0.99282952  0.90413291     0.08700
H325        H  0.43713190  0.99504859  0.97078226     0.07700
N326        N  0.48470922  0.98792178  0.84782600    -0.36100
N327        N  0.01606077  0.98356820  0.84781185    -0.28300
C328        C  0.02669590  0.98357894  0.82480370    -0.03500
C329        C  0.50072818  0.98779983  0.80955711     0.05100
C330        C  0.47457984  0.99078490  0.82482911     0.03200
H331        H  0.05164388  0.98178139  0.81976149     0.08300
H332        H  0.44994132  0.99469890  0.81959274     0.07100
N333        N  0.49998290  0.56316023  0.60222042    -0.27300
N334        N  0.50054421  0.54790104  0.58126477    -0.35100
C335        C  0.50160933  0.56951922  0.56320070     0.01100
C336        C  0.50125811  0.59972861  0.57330122     0.07100
C337        C  0.50050569  0.59480006  0.59804418    -0.06000
H338        H  0.50213801  0.56369111  0.54412594     0.07800
H339        H  0.50077840  0.61279872  0.61206164     0.09000
Cu340      Cu  0.49929501  0.99847393  0.57801615     0.44200
Cu341      Cu  0.49842651  0.54102759  0.63582049     0.42000
Cu342      Cu  0.49870452  0.95524574  0.63473800     0.43900
N343        N  0.49817381  0.94895475  0.58039848    -0.34700
N344        N  0.49861314  0.93329512  0.60121858    -0.28900
C345        C  0.49816301  0.90172439  0.59682968    -0.05000
C346        C  0.49686879  0.89730969  0.57209201     0.07200
C347        C  0.49713883  0.92769308  0.56216088     0.01000
H348        H  0.49840526  0.88335257  0.61064077     0.08700
H349        H  0.49680265  0.93385564  0.54312638     0.07700
N350        N  0.49709456  0.98162920  0.66634255    -0.36100
N351        N  0.49679359  0.51317604  0.66688289    -0.28300
C352        C  0.49604039  0.52287399  0.69009687    -0.03500
C353        C  0.49580527  0.99604574  0.70489460     0.05100
C354        C  0.49660804  0.97037152  0.68912714     0.03200
H355        H  0.49660448  0.54761204  0.69570907     0.08300
H356        H  0.49692879  0.94527060  0.69384417     0.07100
C357        C  0.27928209  0.99893090  0.99460054     0.02300
C358        C  0.27915777  0.00086157  0.02018568     0.02300
C359        C  0.24990689  0.00020042  0.03269299    -0.18200
C360        C  0.22061897  0.99842947  0.02033336     0.02300
C361        C  0.22062698  0.99802884  0.99463745     0.02300
C362        C  0.25000637  0.99772789  0.98218452    -0.18200
H363        H  0.25007038  0.99632459  0.96258452     0.04300
H364        H  0.24994166  0.00119138  0.05231386     0.04300
C365        C  0.13733895  0.51552401  0.96953566    -0.26300
C366        C  0.13258271  0.98896387  0.95454267    -0.14400
C367        C  0.15732680  0.96638161  0.95178747     0.36300
C368        C  0.18594015  0.97032488  0.96480430    -0.25700
C369        C  0.19051080  0.99656698  0.98027640    -0.15000
C370        C  0.16629050  0.52021467  0.98177670     0.37300
N371        N  0.17072440  0.54999510  0.99424779    -0.89200
H372        H  0.11878595  0.53351255  0.97101310     0.18500
H373        H  0.20455780  0.95240727  0.96334389     0.18500
N374        N  0.15304193  0.93919214  0.93626073    -0.88300
H375        H  0.15450739  0.55074235  0.00867756     0.35800
H376        H  0.19379980  0.55228424  0.00122215     0.40900
H377        H  0.13469433  0.92519367  0.94363402     0.40500
H378        H  0.17363105  0.92498717  0.93613403     0.35400
C379        C  0.34629468  0.01774639  0.94989881    -0.26300
C380        C  0.36901342  0.99440224  0.95595438    -0.14400
C381        C  0.36161243  0.97180364  0.97420703     0.36300
C382        C  0.33199582  0.97317220  0.98601407    -0.25700
C383        C  0.30972664  0.99723461  0.98060901    -0.15000
C384        C  0.31694558  0.01958704  0.96226077     0.37300
N385        N  0.29494579  0.04475033  0.95665470    -0.89200
H386        H  0.35166632  0.03511568  0.93587589     0.18500
H387        H  0.32638684  0.45537858  0.99966332     0.18500
N388        N  0.38317353  0.44659314  0.98061269    -0.88300
H389        H  0.28908128  0.04306934  0.93831096     0.35800
H390        H  0.30663306  0.06656275  0.95936231     0.41100
H391        H  0.40397152  0.95657835  0.98784327     0.40500
H392        H  0.38906870  0.93386646  0.96496725     0.35400
C393        C  0.48264860  0.51444094  0.77175742    -0.26300
C394        C  0.50051514  0.99002496  0.78278212    -0.14400
C395        C  0.01621638  0.96735208  0.76799358     0.36300
C396        C  0.01415614  0.96986488  0.74281126    -0.25700
C397        C  0.49679808  0.99457433  0.73172500    -0.15000
C398        C  0.48053892  0.51695542  0.74639122     0.37300
N399        N  0.46128494  0.54157904  0.73558485    -0.89200
H400        H  0.47015080  0.53156575  0.78302245     0.18500
H401        H  0.02654911  0.95237360  0.73181496     0.18500
N402        N  0.03330414  0.94072319  0.77789458    -0.88300
H403        H  0.45105137  0.55607537  0.74890520     0.35800
H404        H  0.44231585  0.53041387  0.72660080     0.40900
H405        H  0.01816945  0.92833429  0.78974555     0.40500
H406        H  0.05314747  0.94913895  0.78739737     0.35400
C407        C  0.47941767  0.68262022  0.55099922    -0.26300
C408        C  0.50399677  0.68866654  0.53422617    -0.14400
C409        C  0.02864808  0.66566703  0.53119512     0.36300
C410        C  0.02675776  0.63660923  0.54381132    -0.25700
C411        C  0.50193908  0.63058617  0.56033476    -0.15000
C412        C  0.47818168  0.65405216  0.56407308     0.37300
N413        N  0.45175530  0.64903435  0.58022239    -0.89200
H414        H  0.46051013  0.70002972  0.55353440     0.18500
H415        H  0.04542517  0.61894598  0.54125351     0.18500
N416        N  0.05664175  0.67144124  0.51662887    -0.88300
H417        H  0.46046239  0.64661959  0.59783072     0.35800
H418        H  0.44007070  0.62792897  0.57529963     0.40900
H419        H  0.05685878  0.69443531  0.50932864     0.40500
H420        H  0.05648407  0.65515621  0.50229724     0.35400
C421        C  0.47320190  0.82762660  0.53187901    -0.26300
C422        C  0.49971231  0.80738771  0.53478897    -0.14400
C423        C  0.02488129  0.81686021  0.55029957     0.36300
C424        C  0.02288831  0.84600157  0.56253261    -0.25700
C425        C  0.49673205  0.86650881  0.55920786    -0.15000
C426        C  0.47149481  0.85720192  0.54363563     0.37300
N427        N  0.44344048  0.87643374  0.53979702    -0.89200
H428        H  0.45372881  0.82047282  0.52012241     0.18500
H429        H  0.04240923  0.85313352  0.57425715     0.18500
N430        N  0.05341555  0.79823207  0.55307058    -0.88300
H431        H  0.44367493  0.88396460  0.52173176     0.35800
H432        H  0.44332291  0.89688471  0.55053529     0.40900
H433        H  0.06326411  0.79412169  0.53594214     0.40500
H434        H  0.04759518  0.77632529  0.56100057     0.35400
C435        C  0.47407305  0.63763726  0.47104725    -0.26300
C436        C  0.99937884  0.63069585  0.45522555    -0.14400
C437        C  0.02381000  0.65343618  0.45145979     0.36300
C438        C  0.02262148  0.68262722  0.46390152    -0.25700
C439        C  0.99779132  0.68931019  0.48028597    -0.15000
C440        C  0.47251882  0.66694026  0.48320418     0.37300
N441        N  0.44435038  0.67356905  0.49733543    -0.89200
H442        H  0.45484654  0.62048130  0.47344073     0.18500
H443        H  0.04180448  0.69982802  0.46152420     0.18500
N444        N  0.05019339  0.64639874  0.43558471    -0.88300
H445        H  0.44383170  0.65756115  0.51188288     0.35800
H446        H  0.44455199  0.69667581  0.50438001     0.40900
H447        H  0.06281028  0.62724800  0.44312113     0.40500
H448        H  0.06612479  0.66566950  0.43481202     0.35400
C449        C  0.47541706  0.84404209  0.45137291    -0.26300
C450        C  0.99922339  0.86696839  0.45567549    -0.14400
C451        C  0.02371500  0.86040420  0.47249126     0.36300
C452        C  0.02388190  0.83089635  0.48467005    -0.25700
C453        C  0.99959295  0.80820837  0.48087431    -0.15000
C454        C  0.47496329  0.81496497  0.46414938     0.37300
N455        N  0.44927587  0.79256909  0.46057909    -0.89200
H456        H  0.45656335  0.84929213  0.43851880     0.18500
H457        H  0.04301757  0.82554559  0.49724277     0.18500
N458        N  0.04855747  0.88348761  0.47683979    -0.88300
H459        H  0.43314270  0.80114269  0.44766757     0.35800
H460        H  0.43662494  0.79078832  0.47689187     0.40900
H461        H  0.06159556  0.88614423  0.46077714     0.40500
H462        H  0.06458654  0.87504334  0.48988521     0.35400
C463        C  0.18452822  0.52535549  0.04952339    -0.26300
C464        C  0.19053008  0.99864941  0.03483344    -0.14400
C465        C  0.16759087  0.97362664  0.03405080     0.36300
C466        C  0.13860510  0.97705501  0.04666493    -0.25700
C467        C  0.13247193  0.00410409  0.06086437    -0.15000
C468        C  0.15586716  0.52837455  0.06241613     0.37300
N469        N  0.15061028  0.55698267  0.07604611    -0.89200
H470        H  0.20191757  0.54457811  0.05035004     0.18500
H471        H  0.12098348  0.95804732  0.04582283     0.18500
N472        N  0.17327228  0.94400139  0.02164973    -0.88300
H473        H  0.14773941  0.55092721  0.09427174     0.35800
H474        H  0.12955437  0.56773641  0.06988961     0.40900
H475        H  0.19627416  0.94293913  0.01430653     0.40500
H476        H  0.15693447  0.94242738  0.00738582     0.35400
C477        C  0.31712412  0.97748235  0.04975830    -0.26300
C478        C  0.30930794  0.00301371  0.03435338    -0.14400
C479        C  0.33086012  0.52911306  0.03215211     0.36300
C480        C  0.36005293  0.52825750  0.04464157    -0.25700
C481        C  0.36775343  0.00269627  0.05998368    -0.15000
C482        C  0.34593697  0.97711777  0.06260626     0.37300
N483        N  0.35290778  0.94997414  0.07752129    -0.89200
H484        H  0.30089588  0.95735859  0.05146074     0.18500
H485        H  0.37654203  0.54815229  0.04283087     0.18500
N486        N  0.32361086  0.55723535  0.01821470    -0.88300
H487        H  0.35548652  0.95761923  0.09539325     0.35800
H488        H  0.37458992  0.94007369  0.07173933     0.40900
H489        H  0.30054515  0.55651853  0.01102849     0.40500
H490        H  0.33970780  0.55824275  0.00371030     0.35400
C491        C  0.01952356  0.52344721  0.24490889    -0.26300
C492        C  0.99984328  0.00208580  0.23224924    -0.14400
C493        C  0.48229838  0.97882129  0.24534551     0.36300
C494        C  0.48394966  0.97818885  0.27063338    -0.25700
C495        C  0.00275748  0.00027569  0.28339568    -0.15000
C496        C  0.02133601  0.52273507  0.27031002     0.37300
N497        N  0.04250179  0.54425999  0.28272774    -0.89200
H498        H  0.03354885  0.54084621  0.23489781     0.18500
H499        H  0.46993618  0.96053149  0.28037561     0.18500
N500        N  0.46357247  0.95477674  0.23354957    -0.88300
H501        H  0.05428715  0.55927054  0.27044773     0.35800
H502        H  0.06019339  0.53047825  0.29110328     0.40900
H503        H  0.47806700  0.94287822  0.22103432     0.40500
H504        H  0.44461959  0.96568486  0.22446214     0.35400
N505        N  0.93450064  0.50520834  0.10237130    -0.27300
N506        N  0.95023145  0.50542213  0.08155532    -0.35100
C507        C  0.92893899  0.50461703  0.06328695     0.01100
C508        C  0.89847294  0.50333062  0.07314166     0.07100
C509        C  0.90287471  0.50391626  0.09792980    -0.06000
H510        H  0.93516408  0.50463972  0.04425938     0.07800
H511        H  0.88446712  0.00387721  0.11174417     0.09000
Cu512      Cu  0.99997779  0.50610885  0.07913610     0.44200
Cu513      Cu  0.95651177  0.00684480  0.13595732     0.42000
Cu514      Cu  0.54287301  0.01085359  0.13625089     0.43900
N515        N  0.54967520  0.50684801  0.08194957    -0.34700
N516        N  0.56511608  0.50938250  0.10274618    -0.28900
C517        C  0.59681727  0.50924786  0.09845877    -0.05000
C518        C  0.60159563  0.50649924  0.07378659     0.07200
C519        C  0.57124804  0.50473375  0.06387388     0.01000
H520        H  0.61498316  0.51009988  0.11237410     0.08700
H521        H  0.56530219  0.50212474  0.04492356     0.07700
N522        N  0.51533908  0.00819977  0.16738652    -0.36100
N523        N  0.98373776  0.00658089  0.16729122    -0.28300
C524        C  0.97315313  0.00412690  0.19023101    -0.03500
C525        C  0.49941873  0.00381519  0.20549598     0.05100
C526        C  0.52572543  0.00683398  0.19038037     0.03200
H527        H  0.94815057  0.00335942  0.19528246     0.08300
H528        H  0.55064024  0.00752622  0.19569279     0.07100
N529        N  0.49438478  0.43362024  0.41321390    -0.27300
N530        N  0.49719372  0.44929686  0.43388166    -0.35100
C531        C  0.49963880  0.42809708  0.45212823     0.01100
C532        C  0.49795711  0.39766990  0.44249488     0.07100
C533        C  0.49438666  0.40204393  0.41782760    -0.06000
H534        H  0.50204820  0.43438479  0.47102978     0.07800
H535        H  0.49271077  0.38361969  0.40417424     0.09000
Cu536      Cu  0.49715911  0.49875247  0.43660839     0.44200
Cu537      Cu  0.49335895  0.45551253  0.37944359     0.42000
Cu538      Cu  0.50344647  0.04129338  0.38007138     0.43900
N539        N  0.49813906  0.04822616  0.43412945    -0.34700
N540        N  0.50170688  0.06364350  0.41338128    -0.28900
C541        C  0.50286251  0.09520784  0.41769056    -0.05000
C542        C  0.49955568  0.09989594  0.44231934     0.07200
C543        C  0.49638591  0.06965939  0.45221759     0.01000
H544        H  0.50543994  0.11340215  0.40387342     0.08700
H545        H  0.49362441  0.06366796  0.47117577     0.07700
N546        N  0.50208405  0.01441984  0.34873493    -0.36100
N547        N  0.49802194  0.48311374  0.34834083    -0.28300
C548        C  0.49793272  0.47322887  0.32517634    -0.03500
C549        C  0.50234935  0.49959465  0.31026439     0.05100
C550        C  0.50462743  0.02530609  0.32591840     0.03200
H551        H  0.49507666  0.44861457  0.31963139     0.08300
H552        H  0.50715340  0.05026696  0.32118007     0.07100
C553        C  0.49998944  0.27772451  0.49485136     0.02300
C554        C  0.00123027  0.27737265  0.52048725     0.02300
C555        C  0.00226369  0.24799547  0.53273651    -0.18200
C556        C  0.00255235  0.21894728  0.52011183     0.02300
C557        C  0.49976831  0.21927089  0.49456959     0.02300
C558        C  0.49928390  0.24861809  0.48225487    -0.18200
H559        H  0.49819019  0.24877469  0.46264333     0.04300
H560        H  0.00238046  0.24764680  0.55235387     0.04300
N561        N  0.56560973  0.48164257  0.91255573    -0.27300
N562        N  0.55016249  0.48783416  0.93293605    -0.35100
C563        C  0.57151282  0.49077040  0.95098119     0.01100
C564        C  0.60181852  0.48574973  0.94159145     0.07100
C565        C  0.59719801  0.48001566  0.91717362    -0.06000
H566        H  0.56544641  0.49641474  0.96954200     0.07800
H567        H  0.61551588  0.47639333  0.90357360     0.09000
Cu568      Cu  0.00082021  0.49232524  0.93536975     0.44200
Cu569      Cu  0.54332184  0.47934730  0.87904539     0.42000
Cu570      Cu  0.95709702  0.49051254  0.87904161     0.43900
N571        N  0.95125689  0.49320463  0.93336785    -0.34700
N572        N  0.93520844  0.49265509  0.91276745    -0.28900
C573        C  0.90363777  0.49317791  0.91766455    -0.05000
C574        C  0.89965820  0.49361951  0.94253720     0.07200
C575        C  0.93035606  0.49390561  0.95191930     0.01000
H576        H  0.88494711  0.49282999  0.90413294     0.08700
H577        H  0.93713137  0.49504849  0.97078234     0.07700
N578        N  0.98470898  0.48792177  0.84782605    -0.36100
N579        N  0.51606045  0.48356814  0.84781194    -0.28300
C580        C  0.52669547  0.48357890  0.82480376    -0.03500
C581        C  0.00072788  0.48779986  0.80955716     0.05100
C582        C  0.97457965  0.49078491  0.82482915     0.03200
H583        H  0.55164339  0.48178150  0.81976151     0.08300
H584        H  0.94994118  0.49469904  0.81959276     0.07100
N585        N  0.99998299  0.06316051  0.60222053    -0.27300
N586        N  0.00054429  0.04790118  0.58126488    -0.35100
C587        C  0.00160936  0.06951930  0.56320078     0.01100
C588        C  0.00125804  0.09972874  0.57330133     0.07100
C589        C  0.00050574  0.09480036  0.59804430    -0.06000
H590        H  0.00213796  0.06369113  0.54412600     0.07800
H591        H  0.00077873  0.11279912  0.61206170     0.09000
Cu592      Cu  0.99929508  0.49847392  0.57801615     0.44200
Cu593      Cu  0.99842658  0.04102772  0.63582054     0.42000
Cu594      Cu  0.99870435  0.45524568  0.63473805     0.43900
N595        N  0.99817381  0.44895478  0.58039849    -0.34700
N596        N  0.99861308  0.43329508  0.60121857    -0.28900
C597        C  0.99816288  0.40172438  0.59682959    -0.05000
C598        C  0.99686880  0.39730975  0.57209193     0.07200
C599        C  0.99713893  0.42769323  0.56216083     0.01000
H600        H  0.99840460  0.38335251  0.61064066     0.08700
H601        H  0.99680291  0.43385610  0.54312639     0.07700
N602        N  0.99709463  0.48162905  0.66634272    -0.36100
N603        N  0.99679361  0.01317605  0.66688278    -0.28300
C604        C  0.99604024  0.02287377  0.69009684    -0.03500
C605        C  0.99580529  0.49604572  0.70489465     0.05100
C606        C  0.99660799  0.47037119  0.68912725     0.03200
H607        H  0.99660399  0.04761167  0.69570921     0.08300
H608        H  0.99692860  0.44527013  0.69384419     0.07100
C609        C  0.77928207  0.49893087  0.99460055     0.02300
C610        C  0.77915782  0.50086146  0.02018568     0.02300
C611        C  0.74990701  0.50020035  0.03269302    -0.18200
C612        C  0.72061910  0.49842951  0.02033341     0.02300
C613        C  0.72062708  0.49802866  0.99463751     0.02300
C614        C  0.75000641  0.49772793  0.98218452    -0.18200
H615        H  0.75007045  0.49632453  0.96258452     0.04300
H616        H  0.74994193  0.50119103  0.05231389     0.04300
C617        C  0.63733869  0.01552414  0.96953561    -0.26300
C618        C  0.63258278  0.48896404  0.95454276    -0.14400
C619        C  0.65732686  0.46638196  0.95178744     0.36300
C620        C  0.68594023  0.47032491  0.96480442    -0.25700
C621        C  0.69051096  0.49656683  0.98027650    -0.15000
C622        C  0.66629022  0.02021476  0.98177680     0.37300
N623        N  0.67072372  0.04999498  0.99424839    -0.89200
H624        H  0.61878542  0.03351238  0.97101331     0.18500
H625        H  0.70455790  0.45240728  0.96334400     0.18500
N626        N  0.65304218  0.43919330  0.93626018    -0.88300
H627        H  0.65450730  0.05074220  0.00867755     0.35800
H628        H  0.69379985  0.05228467  0.00122261     0.40900
H629        H  0.63469410  0.42519436  0.94363379     0.40500
H630        H  0.67363128  0.42498812  0.93613378     0.35400
C631        C  0.84629455  0.51774640  0.94989876    -0.26300
C632        C  0.86901321  0.49440225  0.95595444    -0.14400
C633        C  0.86161192  0.47180343  0.97420716     0.36300
C634        C  0.83199546  0.47317205  0.98601432    -0.25700
C635        C  0.80972653  0.49723447  0.98060910    -0.15000
C636        C  0.81694540  0.51958691  0.96226069     0.37300
N637        N  0.79494522  0.54474981  0.95665432    -0.89200
H638        H  0.85166603  0.53511564  0.93587572     0.18500
H639        H  0.82638701  0.95537888  0.99966321     0.18500
N640        N  0.88317463  0.94659360  0.98061280    -0.88300
H641        H  0.78908114  0.54306902  0.93831117     0.35800
H642        H  0.80663247  0.56656324  0.95936227     0.41100
H643        H  0.90397131  0.45657816  0.98784384     0.40500
H644        H  0.88906756  0.43386653  0.96496740     0.35400
C645        C  0.98264878  0.01444082  0.77175729    -0.26300
C646        C  0.00051499  0.49002504  0.78278222    -0.14400
C647        C  0.51621658  0.46735237  0.76799370     0.36300
C648        C  0.51415604  0.46986510  0.74281140    -0.25700
C649        C  0.99679796  0.49457445  0.73172512    -0.15000
C650        C  0.98053894  0.01695522  0.74639113     0.37300
N651        N  0.96128454  0.04157850  0.73558466    -0.89200
H652        H  0.97015123  0.03156579  0.78302235     0.18500
H653        H  0.52654870  0.45237366  0.73181509     0.18500
N654        N  0.53330566  0.44072413  0.77789461    -0.88300
H655        H  0.95105093  0.05607548  0.74890527     0.35800
H656        H  0.94231599  0.03041337  0.72660118     0.40900
H657        H  0.51817004  0.42833346  0.78974603     0.40500
H658        H  0.55314709  0.44913949  0.78739685     0.35400
C659        C  0.97941770  0.18262032  0.55099911    -0.26300
C660        C  0.00399674  0.18866644  0.53422609    -0.14400
C661        C  0.52864813  0.16566698  0.53119513     0.36300
C662        C  0.52675781  0.13660914  0.54381125    -0.25700
C663        C  0.00193897  0.13058620  0.56033476    -0.15000
C664        C  0.97818176  0.15405240  0.56407311     0.37300
N665        N  0.95175616  0.14903551  0.58022319    -0.89200
H666        H  0.96051024  0.20002987  0.55353433     0.18500
H667        H  0.54542525  0.11894592  0.54125330     0.18500
N668        N  0.55664173  0.17144115  0.51662885    -0.88300
H669        H  0.96046344  0.14662046  0.59783018     0.35800
H670        H  0.94006961  0.12792913  0.57530018     0.40900
H671        H  0.55685860  0.19443521  0.50932856     0.40500
H672        H  0.55648372  0.15515620  0.50229721     0.35400
C673        C  0.97320227  0.32762665  0.53187927    -0.26300
C674        C  0.99971259  0.30738772  0.53478911    -0.14400
C675        C  0.52488164  0.31686021  0.55029961     0.36300
C676        C  0.52288878  0.34600153  0.56253274    -0.25700
C677        C  0.99673236  0.36650883  0.55920794    -0.15000
C678        C  0.97149508  0.35720197  0.54363575     0.37300
N679        N  0.94344057  0.37643368  0.53979705    -0.89200
H680        H  0.95372930  0.32047292  0.52012258     0.18500
H681        H  0.54240988  0.35313348  0.57425717     0.18500
N682        N  0.55341605  0.29823219  0.55307005    -0.88300
H683        H  0.94367497  0.38396456  0.52173168     0.35800
H684        H  0.94332285  0.39688465  0.55053519     0.40900
H685        H  0.56326387  0.29412180  0.53594216     0.40500
H686        H  0.54759577  0.27632483  0.56100059     0.35400
C687        C  0.97407260  0.13763699  0.47104726    -0.26300
C688        C  0.49937849  0.13069571  0.45522558    -0.14400
C689        C  0.52380971  0.15343617  0.45145975     0.36300
C690        C  0.52262141  0.18262715  0.46390155    -0.25700
C691        C  0.49779125  0.18931007  0.48028597    -0.15000
C692        C  0.97251858  0.16694010  0.48320418     0.37300
N693        N  0.94435027  0.17356902  0.49733549    -0.89200
H694        H  0.95484591  0.12048113  0.47344075     0.18500
H695        H  0.54180468  0.19982769  0.46152432     0.18500
N696        N  0.55019287  0.14639919  0.43558437    -0.88300
H697        H  0.94383164  0.15756123  0.51188281     0.35800
H698        H  0.94455196  0.19667593  0.50438017     0.40900
H699        H  0.56281008  0.12724767  0.44312087     0.40500
H700        H  0.56612411  0.16566934  0.43481179     0.35400
C701        C  0.97541734  0.34404215  0.45137301    -0.26300
C702        C  0.49922344  0.36696833  0.45567549    -0.14400
C703        C  0.52371492  0.36040418  0.47249128     0.36300
C704        C  0.52388197  0.33089630  0.48467007    -0.25700
C705        C  0.49959313  0.30820833  0.48087439    -0.15000
C706        C  0.97496371  0.31496496  0.46414941     0.37300
N707        N  0.94927692  0.29256877  0.46057893    -0.89200
H708        H  0.95656367  0.34929241  0.43851886     0.18500
H709        H  0.54301753  0.32554559  0.49724290     0.18500
N710        N  0.54855709  0.38348768  0.47683985    -0.88300
H711        H  0.93314335  0.30114261  0.44766702     0.35800
H712        H  0.93662596  0.29078785  0.47689176     0.40900
H713        H  0.56159534  0.38614429  0.46077723     0.40500
H714        H  0.56458621  0.37504305  0.48988539     0.35400
C715        C  0.68452770  0.02535480  0.04952333    -0.26300
C716        C  0.69053039  0.49864977  0.03483357    -0.14400
C717        C  0.66759104  0.47362685  0.03405090     0.36300
C718        C  0.63860528  0.47705517  0.04666499    -0.25700
C719        C  0.63247210  0.50410420  0.06086438    -0.15000
C720        C  0.65586691  0.02837403  0.06241616     0.37300
N721        N  0.65061084  0.05698204  0.07604651    -0.89200
H722        H  0.70191699  0.04457735  0.05035002     0.18500
H723        H  0.62098366  0.45804743  0.04582288     0.18500
N724        N  0.67327235  0.44400151  0.02164984    -0.88300
H725        H  0.64773982  0.05092651  0.09427142     0.35800
H726        H  0.62955434  0.06773669  0.06988981     0.40900
H727        H  0.69627420  0.44293936  0.01430653     0.40500
H728        H  0.65693454  0.44242769  0.00738585     0.35400
C729        C  0.81712429  0.47748229  0.04975835    -0.26300
C730        C  0.80930806  0.50301365  0.03435338    -0.14400
C731        C  0.83085960  0.02911295  0.03215216     0.36300
C732        C  0.86005243  0.02825732  0.04464151    -0.25700
C733        C  0.86775360  0.50269645  0.05998367    -0.15000
C734        C  0.84593722  0.47711775  0.06260624     0.37300
N735        N  0.85290838  0.44997391  0.07752111    -0.89200
H736        H  0.80089607  0.45735845  0.05146078     0.18500
H737        H  0.87654164  0.04815209  0.04283081     0.18500
N738        N  0.82360902  0.05723528  0.01821502    -0.88300
H739        H  0.85548684  0.45761886  0.09539346     0.35800
H740        H  0.87459003  0.44007378  0.07173936     0.40900
H741        H  0.80054573  0.05651816  0.01102903     0.40500
H742        H  0.83970765  0.05824367  0.00370972     0.35400
C743        C  0.51952385  0.02344745  0.24490872    -0.26300
C744        C  0.49984312  0.50208563  0.23224932    -0.14400
C745        C  0.98229798  0.47882125  0.24534560     0.36300
C746        C  0.98394928  0.47818857  0.27063348    -0.25700
C747        C  0.50275717  0.50027541  0.28339577    -0.15000
C748        C  0.52133632  0.02273531  0.27030988     0.37300
N749        N  0.54250213  0.04426053  0.28272735    -0.89200
H750        H  0.53354920  0.04084630  0.23489764     0.18500
H751        H  0.96993605  0.46053092  0.28037563     0.18500
N752        N  0.96357144  0.45477724  0.23354970    -0.88300
H753        H  0.55428707  0.05927023  0.27044780     0.35800
H754        H  0.56019409  0.03047860  0.29110342     0.40900
H755        H  0.97806664  0.44287760  0.22103411     0.40500
H756        H  0.94461954  0.46568490  0.22446257     0.35400
N757        N  0.93450062  0.00520835  0.10237145    -0.27300
N758        N  0.95023149  0.00542214  0.08155558    -0.35100
C759        C  0.92893906  0.00461702  0.06328722     0.01100
C760        C  0.89847286  0.00333067  0.07314179     0.07100
C761        C  0.90287468  0.00391624  0.09792989    -0.06000
H762        H  0.93516447  0.00464012  0.04425974     0.07800
H763        H  0.88446712  0.50387683  0.11174409     0.09000
Cu764      Cu  0.99997783  0.00610879  0.07913614     0.44200
Cu765      Cu  0.95651174  0.50684486  0.13595730     0.42000
Cu766      Cu  0.54287294  0.51085364  0.13625088     0.43900
N767        N  0.54967524  0.00684793  0.08194959    -0.34700
N768        N  0.56511616  0.00938252  0.10274620    -0.28900
C769        C  0.59681734  0.00924789  0.09845877    -0.05000
C770        C  0.60159562  0.00649928  0.07378661     0.07200
C771        C  0.57124808  0.00473370  0.06387392     0.01000
H772        H  0.61498327  0.01010038  0.11237407     0.08700
H773        H  0.56530228  0.00212462  0.04492360     0.07700
N774        N  0.51533913  0.50819983  0.16738665    -0.36100
N775        N  0.98373790  0.50658096  0.16729126    -0.28300
C776        C  0.97315327  0.50412698  0.19023103    -0.03500
C777        C  0.49941870  0.50381523  0.20549602     0.05100
C778        C  0.52572566  0.50683403  0.19038044     0.03200
H779        H  0.94815070  0.50335952  0.19528247     0.08300
H780        H  0.55064060  0.50752626  0.19569272     0.07100
N781        N  0.49438473  0.93362025  0.41321393    -0.27300
N782        N  0.49719379  0.94929685  0.43388167    -0.35100
C783        C  0.49963876  0.92809710  0.45212827     0.01100
C784        C  0.49795706  0.89766995  0.44249492     0.07100
C785        C  0.49438667  0.90204396  0.41782764    -0.06000
H786        H  0.50204811  0.93438482  0.47102982     0.07800
H787        H  0.49271071  0.88361974  0.40417429     0.09000
Cu788      Cu  0.49715924  0.99875247  0.43660839     0.44200
Cu789      Cu  0.49335890  0.95551243  0.37944358     0.42000
Cu790      Cu  0.50344641  0.54129343  0.38007137     0.43900
N791        N  0.49813913  0.54822605  0.43412951    -0.34700
N792        N  0.50170680  0.56364339  0.41338138    -0.28900
C793        C  0.50286258  0.59520770  0.41769086    -0.05000
C794        C  0.49955577  0.59989586  0.44231956     0.07200
C795        C  0.49638594  0.56965931  0.45221767     0.01000
H796        H  0.50543954  0.61340222  0.40387387     0.08700
H797        H  0.49362472  0.56366785  0.47117585     0.07700
N798        N  0.50208415  0.51442012  0.34873483    -0.36100
N799        N  0.49802198  0.98311351  0.34834090    -0.28300
C800        C  0.49793277  0.97322872  0.32517636    -0.03500
C801        C  0.50234942  0.99959445  0.31026439     0.05100
C802        C  0.50462737  0.52530652  0.32591834     0.03200
H803        H  0.49507709  0.94861440  0.31963141     0.08300
H804        H  0.50715377  0.55026744  0.32118013     0.07100
C805        C  0.49998944  0.77772454  0.49485135     0.02300
C806        C  0.00123030  0.77737268  0.52048719     0.02300
C807        C  0.00226364  0.74799556  0.53273649    -0.18200
C808        C  0.00255239  0.71894733  0.52011185     0.02300
C809        C  0.49976836  0.71927097  0.49456956     0.02300
C810        C  0.49928388  0.74861821  0.48225485    -0.18200
H811        H  0.49819038  0.74877508  0.46264330     0.04300
H812        H  0.00238028  0.74764709  0.55235385     0.04300
N813        N  0.56560976  0.98164254  0.91255569    -0.27300
N814        N  0.55016252  0.98783410  0.93293600    -0.35100
C815        C  0.57151290  0.99077029  0.95098112     0.01100
C816        C  0.60181856  0.98574957  0.94159137     0.07100
C817        C  0.59719806  0.98001560  0.91717356    -0.06000
H818        H  0.56544655  0.99641425  0.96954200     0.07800
H819        H  0.61551590  0.97639294  0.90357357     0.09000
Cu820      Cu  0.00082028  0.99232509  0.93536974     0.44200
Cu821      Cu  0.54332191  0.97934736  0.87904537     0.42000
Cu822      Cu  0.95709708  0.99051238  0.87904161     0.43900
N823        N  0.95125684  0.99320464  0.93336775    -0.34700
N824        N  0.93520821  0.99265492  0.91276737    -0.28900
C825        C  0.90363752  0.99317790  0.91766448    -0.05000
C826        C  0.89965820  0.99361950  0.94253718     0.07200
C827        C  0.93035622  0.99390562  0.95191928     0.01000
H828        H  0.88494671  0.99282950  0.90413293     0.08700
H829        H  0.93713192  0.99504857  0.97078226     0.07700
N830        N  0.98470922  0.98792178  0.84782600    -0.36100
N831        N  0.51606077  0.98356820  0.84781186    -0.28300
C832        C  0.52669590  0.98357894  0.82480370    -0.03500
C833        C  0.00072818  0.98779983  0.80955711     0.05100
C834        C  0.97457984  0.99078490  0.82482912     0.03200
H835        H  0.55164388  0.98178139  0.81976149     0.08300
H836        H  0.94994131  0.99469890  0.81959274     0.07100
N837        N  0.99998289  0.56316023  0.60222042    -0.27300
N838        N  0.00054422  0.54790103  0.58126477    -0.35100
C839        C  0.00160933  0.56951922  0.56320070     0.01100
C840        C  0.00125808  0.59972861  0.57330124     0.07100
C841        C  0.00050568  0.59480006  0.59804419    -0.06000
H842        H  0.00213801  0.56369111  0.54412594     0.07800
H843        H  0.00077868  0.61279872  0.61206164     0.09000
Cu844      Cu  0.99929502  0.99847393  0.57801615     0.44200
Cu845      Cu  0.99842652  0.54102759  0.63582049     0.42000
Cu846      Cu  0.99870453  0.95524574  0.63473800     0.43900
N847        N  0.99817381  0.94895475  0.58039847    -0.34700
N848        N  0.99861315  0.93329512  0.60121858    -0.28900
C849        C  0.99816301  0.90172439  0.59682967    -0.05000
C850        C  0.99686872  0.89730970  0.57209200     0.07200
C851        C  0.99713881  0.92769308  0.56216087     0.01000
H852        H  0.99840527  0.88335257  0.61064077     0.08700
H853        H  0.99680264  0.93385564  0.54312638     0.07700
N854        N  0.99709456  0.98162920  0.66634255    -0.36100
N855        N  0.99679361  0.51317605  0.66688290    -0.28300
C856        C  0.99604037  0.52287398  0.69009688    -0.03500
C857        C  0.99580527  0.99604574  0.70489460     0.05100
C858        C  0.99660805  0.97037152  0.68912714     0.03200
H859        H  0.99660441  0.54761203  0.69570908     0.08300
H860        H  0.99692880  0.94527060  0.69384417     0.07100
C861        C  0.77928206  0.99893091  0.99460055     0.02300
C862        C  0.77915776  0.00086158  0.02018569     0.02300
C863        C  0.74990688  0.00020043  0.03269301    -0.18200
C864        C  0.72061894  0.99842946  0.02033337     0.02300
C865        C  0.72062697  0.99802885  0.99463747     0.02300
C866        C  0.75000635  0.99772789  0.98218453    -0.18200
H867        H  0.75007037  0.99632458  0.96258452     0.04300
H868        H  0.74994165  0.00119137  0.05231387     0.04300
C869        C  0.63733897  0.51552407  0.96953568    -0.26300
C870        C  0.63258277  0.98896389  0.95454269    -0.14400
C871        C  0.65732691  0.96638176  0.95178742     0.36300
C872        C  0.68594022  0.97032492  0.96480436    -0.25700
C873        C  0.69051080  0.99656700  0.98027643    -0.15000
C874        C  0.66629051  0.52021469  0.98177670     0.37300
N875        N  0.67072441  0.54999510  0.99424779    -0.89200
H876        H  0.61878596  0.53351258  0.97101331     0.18500
H877        H  0.70455786  0.95240736  0.96334390     0.18500
N878        N  0.65304272  0.93919267  0.93626028    -0.88300
H879        H  0.65450739  0.55074236  0.00867756     0.35800
H880        H  0.69379981  0.55228423  0.00122215     0.40900
H881        H  0.63469412  0.92519355  0.94363364     0.40500
H882        H  0.67363110  0.92498798  0.93613398     0.35400
C883        C  0.84629466  0.01774614  0.94989887    -0.26300
C884        C  0.86901337  0.99440203  0.95595447    -0.14400
C885        C  0.86161236  0.97180348  0.97420713     0.36300
C886        C  0.83199571  0.97317207  0.98601416    -0.25700
C887        C  0.80972657  0.99723452  0.98060903    -0.15000
C888        C  0.81694554  0.01958692  0.96226079     0.37300
N889        N  0.79494585  0.04475034  0.95665470    -0.89200
H890        H  0.85166645  0.03511523  0.93587585     0.18500
H891        H  0.82638679  0.45537864  0.99966328     0.18500
N892        N  0.88317350  0.44659315  0.98061268    -0.88300
H893        H  0.78908131  0.04306939  0.93831095     0.35800
H894        H  0.80663330  0.06656262  0.95936228     0.41100
H895        H  0.90397148  0.95657837  0.98784331     0.40500
H896        H  0.88906870  0.93386644  0.96496728     0.35400
C897        C  0.98264858  0.51444095  0.77175742    -0.26300
C898        C  0.00051514  0.99002496  0.78278212    -0.14400
C899        C  0.51621638  0.96735208  0.76799358     0.36300
C900        C  0.51415614  0.96986488  0.74281126    -0.25700
C901        C  0.99679809  0.99457433  0.73172500    -0.15000
C902        C  0.98053887  0.51695540  0.74639122     0.37300
N903        N  0.96128492  0.54157906  0.73558485    -0.89200
H904        H  0.97015085  0.53156583  0.78302244     0.18500
H905        H  0.52654912  0.95237361  0.73181496     0.18500
N906        N  0.53330414  0.94072320  0.77789458    -0.88300
H907        H  0.95105140  0.55607543  0.74890520     0.35800
H908        H  0.94231577  0.53041397  0.72660082     0.40900
H909        H  0.51816946  0.92833429  0.78974555     0.40500
H910        H  0.55314747  0.94913895  0.78739736     0.35400
C911        C  0.97941766  0.68262025  0.55099922    -0.26300
C912        C  0.00399678  0.68866650  0.53422619    -0.14400
C913        C  0.52864815  0.66566715  0.53119507     0.36300
C914        C  0.52675789  0.63660931  0.54381123    -0.25700
C915        C  0.00193899  0.63058617  0.56033480    -0.15000
C916        C  0.97818165  0.65405218  0.56407309     0.37300
N917        N  0.95175528  0.64903436  0.58022239    -0.89200
H918        H  0.96051012  0.70002973  0.55353440     0.18500
H919        H  0.54542527  0.61894601  0.54125325     0.18500
N920        N  0.55664174  0.67144173  0.51662869    -0.88300
H921        H  0.96046237  0.64661962  0.59783073     0.35800
H922        H  0.94007070  0.62792898  0.57529963     0.40900
H923        H  0.55685865  0.69443507  0.50932849     0.40500
H924        H  0.55648413  0.65515636  0.50229686     0.35400
C925        C  0.97320197  0.82762648  0.53187897    -0.26300
C926        C  0.99971235  0.80738768  0.53478897    -0.14400
C927        C  0.52488128  0.81686021  0.55029957     0.36300
C928        C  0.52288831  0.84600156  0.56253260    -0.25700
C929        C  0.99673202  0.86650876  0.55920782    -0.15000
C930        C  0.97149482  0.85720181  0.54363556     0.37300
N931        N  0.94344038  0.87643320  0.53979667    -0.89200
H932        H  0.95372889  0.82047274  0.52012241     0.18500
H933        H  0.54240923  0.85313352  0.57425714     0.18500
N934        N  0.55341554  0.79823207  0.55307058    -0.88300
H935        H  0.94367519  0.88396412  0.52173194     0.35800
H936        H  0.94332266  0.89688497  0.55053547     0.40900
H937        H  0.56326410  0.79412169  0.53594214     0.40500
H938        H  0.54759518  0.77632530  0.56100057     0.35400
C939        C  0.97407306  0.63763725  0.47104723    -0.26300
C940        C  0.49937884  0.63069581  0.45522561    -0.14400
C941        C  0.52380999  0.65343617  0.45145980     0.36300
C942        C  0.52262147  0.68262723  0.46390152    -0.25700
C943        C  0.49779131  0.68931020  0.48028597    -0.15000
C944        C  0.97251883  0.66694025  0.48320418     0.37300
N945        N  0.94435039  0.67356904  0.49733543    -0.89200
H946        H  0.95484655  0.62048128  0.47344071     0.18500
H947        H  0.54180447  0.69982802  0.46152420     0.18500
N948        N  0.55019338  0.64639873  0.43558472    -0.88300
H949        H  0.94383171  0.65756115  0.51188288     0.35800
H950        H  0.94455200  0.69667581  0.50438000     0.40900
H951        H  0.56281027  0.62724800  0.44312114     0.40500
H952        H  0.56612477  0.66566950  0.43481202     0.35400
C953        C  0.97541710  0.84404218  0.45137289    -0.26300
C954        C  0.49922337  0.86696835  0.45567549    -0.14400
C955        C  0.52371499  0.86040420  0.47249126     0.36300
C956        C  0.52388190  0.83089634  0.48467004    -0.25700
C957        C  0.49959292  0.80820832  0.48087433    -0.15000
C958        C  0.97496345  0.81496499  0.46414928     0.37300
N959        N  0.94927632  0.79256903  0.46057859    -0.89200
H960        H  0.95656342  0.84929216  0.43851878     0.18500
H961        H  0.54301757  0.82554558  0.49724275     0.18500
N962        N  0.54855747  0.88348761  0.47683979    -0.88300
H963        H  0.93314332  0.80114259  0.44766749     0.35800
H964        H  0.93662512  0.79078800  0.47689190     0.40900
H965        H  0.56159555  0.88614422  0.46077714     0.40500
H966        H  0.56458654  0.87504334  0.48988521     0.35400
C967        C  0.68452823  0.52535549  0.04952339    -0.26300
C968        C  0.69052999  0.99864934  0.03483345    -0.14400
C969        C  0.66759075  0.97362647  0.03405082     0.36300
C970        C  0.63860491  0.97705471  0.04666493    -0.25700
C971        C  0.63247183  0.00410387  0.06086436    -0.15000
C972        C  0.65586717  0.52837455  0.06241613     0.37300
N973        N  0.65061029  0.55698267  0.07604611    -0.89200
H974        H  0.70191758  0.54457811  0.05035004     0.18500
H975        H  0.62098341  0.95804685  0.04582293     0.18500
N976        N  0.67327230  0.94400132  0.02164969    -0.88300
H977        H  0.64773944  0.55092723  0.09427174     0.35800
H978        H  0.62955438  0.56773642  0.06988961     0.40900
H979        H  0.69627424  0.94293914  0.01430649     0.40500
H980        H  0.65693455  0.94242732  0.00738581     0.35400
C981        C  0.81712412  0.97748235  0.04975830    -0.26300
C982        C  0.80930794  0.00301371  0.03435338    -0.14400
C983        C  0.83085976  0.52911307  0.03215214     0.36300
C984        C  0.86005264  0.52825760  0.04464145    -0.25700
C985        C  0.86775343  0.00269629  0.05998371    -0.15000
C986        C  0.84593698  0.97711778  0.06260627     0.37300
N987        N  0.85290779  0.94997414  0.07752129    -0.89200
H988        H  0.80089589  0.95735859  0.05146074     0.18500
H989        H  0.87654178  0.54815253  0.04283074     0.18500
N990        N  0.82360892  0.55723534  0.01821499    -0.88300
H991        H  0.85548652  0.95761923  0.09539325     0.35800
H992        H  0.87458993  0.94007370  0.07173933     0.40900
H993        H  0.80054575  0.55651797  0.01102916     0.40500
H994        H  0.83970745  0.55824383  0.00370951     0.35400
C995        C  0.51952357  0.52344721  0.24490888    -0.26300
C996        C  0.49984328  0.00208580  0.23224924    -0.14400
C997        C  0.98229838  0.97882129  0.24534551     0.36300
C998        C  0.98394966  0.97818884  0.27063338    -0.25700
C999        C  0.50275748  0.00027569  0.28339568    -0.15000
C1000       C  0.52133603  0.52273507  0.27031002     0.37300
N1001       N  0.54250180  0.54426000  0.28272775    -0.89200
H1002       H  0.53354882  0.54084627  0.23489782     0.18500
H1003       H  0.96993618  0.96053148  0.28037561     0.18500
N1004       N  0.96357247  0.95477674  0.23354957    -0.88300
H1005       H  0.55428716  0.55927055  0.27044774     0.35800
H1006       H  0.56019340  0.53047825  0.29110328     0.40900
H1007       H  0.97806701  0.94287822  0.22103431     0.40500
H1008       H  0.94461959  0.96568486  0.22446214     0.35400
loop_ 
_geom_bond_atom_site_label_1 
_geom_bond_atom_site_label_2 
_geom_bond_distance 
_geom_bond_site_symmetry_2 
_ccdc_geom_bond_type 
N1            N2   1.323       .  A
N1            C5   1.345       .  A
N1         Cu261   2.073       .  S
N2            C3   1.347       .  A
N2           Cu8   2.081       .  S
C3            C4   1.384       .  A
C3            H6   1.082       .  S
C4            C5   1.382       .  A
C4          C229   1.476       .  S
C5          H259   1.082       .  S
H7          C257   1.082       .  S
Cu8         N515   2.082       .  S
Cu9          N19   2.073       .  S
Cu9         N253   2.073       .  S
Cu10         N18   2.069       .  S
Cu10        N264   2.070       .  S
N11          N12   1.323       .  A
N11          C15   1.346       .  A
N11        Cu512   2.082   1_455  S
N12          C13   1.344       .  A
N12        Cu262   2.070       .  S
C13          C14   1.382       .  A
C13          H16   1.082       .  S
C14          C15   1.384       .  A
C14         C215   1.476       .  S
C15          H17   1.082       .  S
N18         N523   1.321   1_455  A
N18          C22   1.344       .  A
N19         N522   1.321       .  A
N19          C20   1.345       .  A
C20         C525   1.385       .  A
C20          H23   1.081       .  S
C21          C22   1.384   1_655  A
C21         C524   1.385       .  A
C21         C492   1.479       .  S
C22          H24   1.082       .  S
N25          N26   1.323       .  A
N25          C29   1.345       .  A
N25         Cu33   2.077       .  S
N26          C27   1.345       .  A
N26         Cu32   2.075       .  S
C27          C28   1.383       .  A
C27          H30   1.082   1_655  S
C28          C29   1.383       .  A
C28         C198   1.476       .  S
C29          H31   1.082       .  S
Cu32        N287   2.075       .  S
Cu33         N43   2.077       .  S
Cu34         N36   2.067       .  S
Cu34         N42   2.067       .  S
N35          N36   1.322   1_655  A
N35          C39   1.346       .  A
N35        Cu284   2.075   1_545  S
N36          C37   1.344       .  A
C37          C38   1.381   1_455  A
C37          H40   1.082       .  S
C38          C39   1.383       .  A
C38         C184   1.474       .  S
C39          H41   1.082       .  S
N42         N295   1.321   1_445  A
N42          C46   1.343       .  A
N43         N294   1.321   1_655  A
N43          C44   1.345       .  A
C44          C45   1.387   1_655  A
C44          H47   1.082       .  S
C45         C298   1.385       .  A
C45         C243   1.484       .  S
C46         C297   1.385   1_545  A
C46          H48   1.081       .  S
C49          C54   1.404       .  A
C49         C554   1.417   1_655  A
C49         C201   1.490       .  S
C50          C51   1.403       .  A
C50         C553   1.417       .  A
C50         C170   1.487       .  S
C51          C52   1.403       .  A
C51          H56   1.084       .  S
C52         C557   1.416       .  A
C52         C156   1.488       .  S
C53          C54   1.403       .  A
C53         C556   1.416   1_655  A
C53         C187   1.485       .  S
C54          H55   1.084       .  S
N57          N58   1.322       .  A
N57          C61   1.346       .  A
N57         Cu65   2.076       .  S
N58          C59   1.344       .  A
N58        Cu568   2.073       .  S
C59          C60   1.383       .  A
C59          H62   1.082       .  S
C60          C61   1.384       .  A
C60         C114   1.478       .  S
C61          H63   1.082       .  S
Cu64         N67   2.073       .  S
Cu64        N562   2.073       .  S
Cu65         N75   2.076       .  S
Cu66         N68   2.075       .  S
Cu66         N74   2.075       .  S
N67          N68   1.322       .  A
N67          C71   1.345       .  A
N68          C69   1.345       .  A
C69          C70   1.383       .  A
C69          H72   1.082       .  S
C70          C71   1.384       .  A
C70         C128   1.478       .  S
C71          H73   1.081       .  S
N74         N579   1.322       .  A
N74          C78   1.345       .  A
N75         N578   1.322   1_455  A
N75          C76   1.345       .  A
C76         C581   1.386       .  A
C76          H79   1.081       .  S
C77          C78   1.384       .  A
C77         C580   1.386       .  A
C77         C142   1.482       .  S
C78          H80   1.082       .  S
N81          N82   1.323       .  A
N81          C85   1.344       .  A
N81         Cu89   2.073       .  S
N82          C83   1.346       .  A
N82        Cu340   2.077   1_545  S
C83          C84   1.383       .  A
C83          H86   1.082       .  S
C84          C85   1.382       .  A
C84         C159   1.475       .  S
C85          H87   1.081       .  S
Cu88         N91   2.077       .  S
Cu88        N334   2.077       .  S
Cu89         N99   2.073       .  S
Cu90         N92   2.068       .  S
Cu90         N98   2.068       .  S
N91          N92   1.322       .  A
N91          C95   1.346       .  A
N92          C93   1.344       .  A
C93          C94   1.380       .  A
C93          H96   1.082       .  S
C94          C95   1.384       .  A
C94         C173   1.474       .  S
C95          H97   1.082       .  S
N98         N351   1.321       .  A
N98         C102   1.343       .  A
N99         N350   1.321   1_545  A
N99         C100   1.346       .  A
C100        C353   1.387   1_545  A
C100        H103   1.082       .  S
C101        C102   1.385       .  A
C101        C352   1.387       .  A
C101        C145   1.484       .  S
C102        H104   1.082       .  S
C105        C106   1.416   1_556  A
C105        C110   1.404       .  A
C105        C131   1.488       .  S
C106        C107   1.402       .  A
C106        C226   1.487       .  S
C107        C108   1.404       .  A
C107        H112   1.085       .  S
C108        C109   1.419   1_554  A
C108        C212   1.488       .  S
C109        C110   1.405       .  A
C109        C117   1.490       .  S
C110        H111   1.084       .  S
C113        C118   1.400       .  A
C113        C366   1.402   1_545  A
C113        H120   1.084       .  S
C114        C115   1.409       .  A
C114        C365   1.402       .  A
C115        C116   1.406       .  A
C115        N122   1.437       .  S
C116        C117   1.406       .  A
C116        H121   1.084       .  S
C117        C370   1.418       .  A
C118        C369   1.418   1_545  A
C118        N119   1.437       .  S
N119        H123   1.045   1_556  S
N119        H124   1.043   1_556  S
N122        H125   1.045       .  S
N122        H126   1.046       .  S
C127        C128   1.403       .  A
C127        C132   1.404       .  A
C127        H134   1.084       .  S
C128        C129   1.414       .  A
C129        C130   1.398       .  A
C129        N388   1.432       .  S
C130        C131   1.404       .  A
C130        H387   1.083       .  S
C131        C132   1.409       .  A
C132        N133   1.432       .  S
N133        H137   1.045       .  S
N133        H138   1.046       .  S
H135        C382   1.083       .  S
N136        C381   1.432       .  S
N136        H391   1.044       .  S
N136        H392   1.045       .  S
H139        N388   1.044       .  S
H140        N388   1.045       .  S
C141        C146   1.408       .  A
C141        C394   1.405   1_545  A
C141        H148   1.084       .  S
C142        C393   1.405       .  A
C142        C647   1.414       .  A
C143        C144   1.397       .  A
C143        C646   1.414       .  A
C143        N150   1.432       .  S
C144        C649   1.404   1_455  A
C144        H149   1.083       .  S
C145        C648   1.404       .  A
C145        C398   1.413       .  A
C146        C397   1.413   1_545  A
C146        N147   1.437       .  S
N147        H151   1.045       .  S
N147        H152   1.046       .  S
N150        H153   1.045       .  S
N150        H154   1.043       .  S
C155        C156   1.403       .  A
C155        C160   1.396       .  A
C155        H162   1.084       .  S
C156        C661   1.420       .  A
C157        C158   1.402       .  A
C157        C660   1.420       .  A
C157        N164   1.437       .  S
C158        C663   1.402       .  A
C158        H163   1.084       .  S
C159        C160   1.412       .  A
C159        C662   1.402       .  A
C160        N161   1.432       .  S
N161        H165   1.044       .  S
N161        H166   1.045       .  S
N164        H167   1.043       .  S
N164        H168   1.046       .  S
C169        C170   1.404       .  A
C169        C174   1.401       .  A
C169        H176   1.084       .  S
C170        C675   1.414       .  A
C171        C172   1.398       .  A
C171        C674   1.414   1_455  A
C171        N178   1.433       .  S
C172        C677   1.402   1_455  A
C172        H177   1.084       .  S
C173        C174   1.417       .  A
C173        C676   1.402       .  A
C174        N175   1.438       .  S
N175        H179   1.046       .  S
N175        H180   1.042       .  S
N178        H181   1.045       .  S
N178        H182   1.043       .  S
C183        C188   1.401       .  A
C183        C688   1.401       .  A
C183        H190   1.084       .  S
C184        C185   1.409   1_655  A
C184        C687   1.401       .  A
C185        C186   1.404       .  A
C185        N192   1.438       .  S
C186        C187   1.403   1_455  A
C186        H191   1.084       .  S
C187        C692   1.418       .  A
C188        C691   1.418       .  A
C188        N189   1.438       .  S
N189        H193   1.045       .  S
N189        H194   1.043       .  S
N192        H195   1.046       .  S
N192        H196   1.045       .  S
C197        C202   1.405       .  A
C197        C702   1.402       .  A
C197        H204   1.084       .  S
C198        C199   1.410   1_655  A
C198        C701   1.402       .  A
C199        C200   1.405       .  A
C199        N206   1.438       .  S
C200        C201   1.405   1_455  A
C200        H205   1.083       .  S
C201        C706   1.412       .  A
C202        C705   1.412       .  A
C202        N203   1.438       .  S
N203        H207   1.045       .  S
N203        H208   1.046       .  S
N206        H209   1.046       .  S
N206        H210   1.046       .  S
C211        C216   1.397       .  A
C211        C464   1.405   1_545  A
C211        H218   1.084       .  S
C212        C213   1.419       .  A
C212        C463   1.405       .  A
C213        C214   1.403       .  A
C213        N220   1.437       .  S
C214        C215   1.402       .  A
C214        H219   1.084       .  S
C215        C468   1.411       .  A
C216        C467   1.411       .  A
C216        N217   1.432       .  S
N217        H221   1.044       .  S
N217        H222   1.045       .  S
N220        H223   1.043       .  S
N220        H224   1.045       .  S
C225        C226   1.404       .  A
C225        C230   1.398       .  A
C225        H232   1.084       .  S
C226        C479   1.419       .  A
C227        C228   1.402       .  A
C227        C478   1.419       .  A
C227        N234   1.438       .  S
C228        C481   1.401       .  A
C228        H233   1.084       .  S
C229        C230   1.412       .  A
C229        C480   1.401       .  A
C230        N231   1.432       .  S
N231        H235   1.044       .  S
N231        H236   1.046       .  S
N234        H237   1.043       .  S
N234        H238   1.045       .  S
C239        C244   1.405       .  A
C239        C492   1.402   1_455  A
C239        H246   1.084       .  S
C240        C491   1.402   1_655  A
C240        C745   1.414       .  A
C240        C273   1.479       .  S
C241        C242   1.399       .  A
C241        C744   1.414       .  A
C241        N248   1.432       .  S
C242        C747   1.404       .  A
C242        H247   1.083       .  S
C243        C746   1.404   1_455  A
C243        C496   1.414       .  A
C244        C495   1.414       .  A
C244        N245   1.437       .  S
N245        H249   1.045       .  S
N245        H250   1.046       .  S
N248        H251   1.045       .  S
N248        H252   1.043       .  S
N253        N254   1.323       .  A
N253        C257   1.345       .  A
N254        C255   1.347       .  A
N254       Cu260   2.081       .  S
C255        C256   1.384       .  A
C255        H258   1.082       .  S
C256        C257   1.382       .  A
C256        C481   1.476       .  S
Cu260       N767   2.082       .  S
Cu261       N271   2.073       .  S
Cu262       N270   2.069       .  S
N263        N264   1.323       .  A
N263        C267   1.346       .  A
N263       Cu764   2.082   1_455  S
N264        C265   1.344       .  A
C265        C266   1.382       .  A
C265        H268   1.082       .  S
C266        C267   1.384       .  A
C266        C467   1.476       .  S
C267        H269   1.082       .  S
N270        N775   1.321   1_455  A
N270        C274   1.344       .  A
N271        N774   1.321       .  A
N271        C272   1.345       .  A
C272        C777   1.385       .  A
C272        H275   1.081       .  S
C273        C776   1.385       .  A
C273        C274   1.384   1_655  A
C274        H276   1.082       .  S
N277        N278   1.323       .  A
N277        C281   1.345       .  A
N277       Cu285   2.077       .  S
N278        C279   1.345       .  A
N278       Cu284   2.075       .  S
C279        C280   1.383       .  A
C279        H282   1.082   1_655  S
C280        C281   1.383       .  A
C280        C450   1.476       .  S
C281        H283   1.082       .  S
Cu285       N295   2.077       .  S
Cu286       N288   2.067       .  S
Cu286       N294   2.067       .  S
N287        N288   1.322   1_655  A
N287        C291   1.346       .  A
N288        C289   1.344       .  A
C289        C290   1.381   1_455  A
C289        H292   1.082       .  S
C290        C291   1.383       .  A
C290        C436   1.474       .  S
C291        H293   1.082       .  S
N294        C298   1.343       .  A
N295        C296   1.345       .  A
C296        C297   1.387   1_655  A
C296        H299   1.082       .  S
C297        C495   1.484   1_565  S
C298        H300   1.081       .  S
C301        C806   1.417   1_655  A
C301        C306   1.404       .  A
C301        C453   1.490       .  S
C302        C805   1.417       .  A
C302        C303   1.403       .  A
C302        C422   1.487       .  S
C303        C304   1.403       .  A
C303        H308   1.084       .  S
C304        C809   1.416       .  A
C304        C408   1.488       .  S
C305        C808   1.416   1_655  A
C305        C306   1.403       .  A
C305        C439   1.485       .  S
C306        H307   1.084       .  S
N309        N310   1.322       .  A
N309        C313   1.346       .  A
N309       Cu317   2.076       .  S
N310        C311   1.344       .  A
N310       Cu820   2.073       .  S
C311        C312   1.383       .  A
C311        H314   1.082       .  S
C312        C313   1.384       .  A
C312        C366   1.478       .  S
C313        H315   1.082       .  S
Cu316       N814   2.073       .  S
Cu316       N319   2.073       .  S
Cu317       N327   2.076       .  S
Cu318       N320   2.075       .  S
Cu318       N326   2.075       .  S
N319        N320   1.322       .  A
N319        C323   1.345       .  A
N320        C321   1.345       .  A
C321        C322   1.383       .  A
C321        H324   1.082       .  S
C322        C323   1.384       .  A
C322        C380   1.478       .  S
C323        H325   1.081       .  S
N326        N831   1.322       .  A
N326        C330   1.345       .  A
N327        N830   1.322   1_455  A
N327        C328   1.345       .  A
C328        C833   1.386       .  A
C328        H331   1.081       .  S
C329        C832   1.386       .  A
C329        C330   1.384       .  A
C329        C394   1.482       .  S
C330        H332   1.082       .  S
N333        N334   1.323       .  A
N333        C337   1.344       .  A
N333       Cu341   2.073       .  S
N334        C335   1.346       .  A
C335        C336   1.383       .  A
C335        H338   1.082       .  S
C336        C337   1.382       .  A
C336        C411   1.475       .  S
C337        H339   1.081       .  S
Cu340       N343   2.077       .  S
Cu341       N351   2.073       .  S
Cu342       N344   2.068       .  S
Cu342       N350   2.068       .  S
N343        N344   1.322       .  A
N343        C347   1.346       .  A
N344        C345   1.344       .  A
C345        C346   1.380       .  A
C345        H348   1.082       .  S
C346        C347   1.384       .  A
C346        C425   1.474       .  S
C347        H349   1.082       .  S
N350        C354   1.343       .  A
N351        C352   1.346       .  A
C352        H355   1.082       .  S
C353        C354   1.385       .  A
C353        C397   1.484       .  S
C354        H356   1.082       .  S
C357        C358   1.416   1_566  A
C357        C362   1.404       .  A
C357        C383   1.488       .  S
C358        C359   1.402       .  A
C358        C478   1.487       .  S
C359        C360   1.404   1_545  A
C359        H364   1.085       .  S
C360        C361   1.419   1_554  A
C360        C464   1.488       .  S
C361        C362   1.405       .  A
C361        C369   1.490       .  S
C362        H363   1.084       .  S
C365        C370   1.400       .  A
C365        H372   1.084       .  S
C366        C367   1.409       .  A
C367        C368   1.406       .  A
C367        N374   1.437       .  S
C368        C369   1.406       .  A
C368        H373   1.084       .  S
C370        N371   1.437       .  S
N371        H375   1.045   1_556  S
N371        H376   1.043   1_556  S
N374        H377   1.045       .  S
N374        H378   1.046       .  S
C379        C380   1.403   1_545  A
C379        C384   1.404       .  A
C379        H386   1.084       .  S
C380        C381   1.414       .  A
C381        C382   1.398       .  A
C382        C383   1.404       .  A
C383        C384   1.409   1_565  A
C384        N385   1.432       .  S
N385        H389   1.045       .  S
N385        H390   1.046       .  S
C393        C398   1.408       .  A
C393        H400   1.084       .  S
C394        C899   1.414       .  A
C395        C898   1.414       .  A
C395        C396   1.397       .  A
C395        N402   1.432       .  S
C396        C901   1.404   1_455  A
C396        H401   1.083       .  S
C397        C900   1.404       .  A
C398        N399   1.437       .  S
N399        H403   1.045       .  S
N399        H404   1.046       .  S
N402        H405   1.045       .  S
N402        H406   1.043       .  S
C407        C408   1.403       .  A
C407        C412   1.396       .  A
C407        H414   1.084       .  S
C408        C913   1.420       .  A
C409        C912   1.420       .  A
C409        C410   1.402       .  A
C409        N416   1.437       .  S
C410        C915   1.402       .  A
C410        H415   1.084       .  S
C411        C914   1.402       .  A
C411        C412   1.412       .  A
C412        N413   1.432       .  S
N413        H417   1.044       .  S
N413        H418   1.045       .  S
N416        H419   1.043       .  S
N416        H420   1.046       .  S
C421        C422   1.404       .  A
C421        C426   1.401       .  A
C421        H428   1.084       .  S
C422        C927   1.414       .  A
C423        C926   1.414   1_455  A
C423        C424   1.398       .  A
C423        N430   1.433       .  S
C424        C929   1.402   1_455  A
C424        H429   1.084       .  S
C425        C928   1.402       .  A
C425        C426   1.417       .  A
C426        N427   1.438       .  S
N427        H431   1.046       .  S
N427        H432   1.042       .  S
N430        H433   1.045       .  S
N430        H434   1.043       .  S
C435        C940   1.401       .  A
C435        C440   1.401       .  A
C435        H442   1.084       .  S
C436        C939   1.401       .  A
C436        C437   1.409   1_655  A
C437        C438   1.404       .  A
C437        N444   1.438       .  S
C438        C439   1.403   1_455  A
C438        H443   1.084       .  S
C439        C944   1.418       .  A
C440        C943   1.418       .  A
C440        N441   1.438       .  S
N441        H445   1.045       .  S
N441        H446   1.043       .  S
N444        H447   1.046       .  S
N444        H448   1.046       .  S
C449        C954   1.402       .  A
C449        C454   1.405       .  A
C449        H456   1.084       .  S
C450        C953   1.402       .  A
C450        C451   1.410   1_655  A
C451        C452   1.405       .  A
C451        N458   1.438       .  S
C452        C453   1.405   1_455  A
C452        H457   1.083       .  S
C453        C958   1.412       .  A
C454        C957   1.412       .  A
C454        N455   1.438       .  S
N455        H459   1.045       .  S
N455        H460   1.046       .  S
N458        H461   1.045       .  S
N458        H462   1.046       .  S
C463        C468   1.397       .  A
C463        H470   1.084       .  S
C464        C465   1.419       .  A
C465        C466   1.403       .  A
C465        N472   1.437       .  S
C466        C467   1.402   1_565  A
C466        H471   1.084       .  S
C468        N469   1.432       .  S
N469        H473   1.044       .  S
N469        H474   1.045       .  S
N472        H475   1.043       .  S
N472        H476   1.045       .  S
C477        C478   1.404   1_565  A
C477        C482   1.398       .  A
C477        H484   1.084       .  S
C479        C480   1.402       .  A
C479        N486   1.438       .  S
C480        H485   1.084       .  S
C481        C482   1.412   1_545  A
C482        N483   1.432       .  S
N483        H487   1.044       .  S
N483        H488   1.046       .  S
N486        H489   1.043       .  S
N486        H490   1.045       .  S
C491        C496   1.405       .  A
C491        H498   1.084       .  S
C492        C997   1.414   1_545  A
C493        C996   1.414   1_565  A
C493        C494   1.399       .  A
C493        N500   1.432       .  S
C494        C999   1.404   1_565  A
C494        H499   1.083       .  S
C495        C998   1.404   1_445  A
C496        N497   1.437       .  S
N497        H501   1.045       .  S
N497        H502   1.046       .  S
N500        H503   1.045       .  S
N500        H504   1.043       .  S
N505        N506   1.323       .  A
N505        C509   1.345       .  A
N505       Cu765   2.073       .  S
N506        C507   1.347       .  A
N506       Cu512   2.081       .  S
C507        C508   1.384       .  A
C507        H510   1.082       .  S
C508        C509   1.382       .  A
C508        C733   1.476       .  S
C509        H763   1.082       .  S
H511        C761   1.082       .  S
Cu513       N757   2.073       .  S
Cu513       N523   2.073       .  S
Cu514       N768   2.070       .  S
Cu514       N522   2.069       .  S
N515        N516   1.323       .  A
N515        C519   1.346       .  A
N516        C517   1.344       .  A
N516       Cu766   2.070       .  S
C517        C518   1.382       .  A
C517        H520   1.082       .  S
C518        C519   1.384       .  A
C518        C719   1.476       .  S
C519        H521   1.082       .  S
N522        C526   1.344       .  A
N523        C524   1.345       .  A
C524        H527   1.081       .  S
C525        C526   1.384       .  A
C525        C996   1.479       .  S
C526        H528   1.082       .  S
N529        N530   1.323       .  A
N529        C533   1.345       .  A
N529       Cu537   2.077       .  S
N530        C531   1.345       .  A
N530       Cu536   2.075       .  S
C531        C532   1.383       .  A
C531        H534   1.082       .  S
C532        C533   1.383       .  A
C532        C702   1.476       .  S
C533        H535   1.082       .  S
Cu536       N791   2.075       .  S
Cu537       N547   2.077       .  S
Cu538       N540   2.067       .  S
Cu538       N546   2.067       .  S
N539        N540   1.322       .  A
N539        C543   1.346       .  A
N539       Cu788   2.075   1_545  S
N540        C541   1.344       .  A
C541        C542   1.381       .  A
C541        H544   1.082       .  S
C542        C543   1.383       .  A
C542        C688   1.474       .  S
C543        H545   1.082       .  S
N546        N799   1.321   1_545  A
N546        C550   1.343       .  A
N547        N798   1.321       .  A
N547        C548   1.345       .  A
C548        C549   1.387       .  A
C548        H551   1.082       .  S
C549        C802   1.385       .  A
C549        C747   1.484       .  S
C550        C801   1.385   1_545  A
C550        H552   1.081       .  S
C553        C558   1.404       .  A
C553        C705   1.490       .  S
C554        C555   1.403       .  A
C554        C674   1.487   1_455  S
C555        C556   1.403       .  A
C555        H560   1.084       .  S
C556        C660   1.488       .  S
C557        C558   1.403       .  A
C557        C691   1.485       .  S
C558        H559   1.084       .  S
N561        N562   1.322       .  A
N561        C565   1.346       .  A
N561       Cu569   2.076       .  S
N562        C563   1.344       .  A
C563        C564   1.383       .  A
C563        H566   1.082       .  S
C564        C565   1.384       .  A
C564        C618   1.478       .  S
C565        H567   1.082       .  S
Cu568       N571   2.073   1_455  S
Cu569       N579   2.076       .  S
Cu570       N572   2.075       .  S
Cu570       N578   2.075       .  S
N571        N572   1.322       .  A
N571        C575   1.345       .  A
N572        C573   1.345       .  A
C573        C574   1.383       .  A
C573        H576   1.082       .  S
C574        C575   1.384       .  A
C574        C632   1.478       .  S
C575        H577   1.081       .  S
N578        C582   1.345       .  A
N579        C580   1.345       .  A
C580        H583   1.081       .  S
C581        C582   1.384   1_455  A
C581        C646   1.482       .  S
C582        H584   1.082       .  S
N585        N586   1.323   1_655  A
N585        C589   1.344   1_655  A
N585       Cu593   2.073       .  S
N586        C587   1.346       .  A
N586       Cu844   2.077   1_445  S
C587        C588   1.383       .  A
C587        H590   1.082       .  S
C588        C589   1.382       .  A
C588        C663   1.475       .  S
C589        H591   1.081       .  S
Cu592       N838   2.077   1_655  S
Cu592       N595   2.077       .  S
Cu593       N603   2.073       .  S
Cu594       N596   2.068       .  S
Cu594       N602   2.068       .  S
N595        N596   1.322       .  A
N595        C599   1.346       .  A
N596        C597   1.344       .  A
C597        C598   1.380       .  A
C597        H600   1.082       .  S
C598        C599   1.384       .  A
C598        C677   1.474       .  S
C599        H601   1.082       .  S
N602        N855   1.321       .  A
N602        C606   1.343       .  A
N603        N854   1.321   1_545  A
N603        C604   1.346       .  A
C604        C857   1.387   1_545  A
C604        H607   1.082       .  S
C605        C856   1.387       .  A
C605        C606   1.385       .  A
C605        C649   1.484       .  S
C606        H608   1.082       .  S
C609        C610   1.416   1_556  A
C609        C614   1.404       .  A
C609        C635   1.488       .  S
C610        C611   1.402       .  A
C610        C730   1.487       .  S
C611        C612   1.404       .  A
C611        H616   1.085       .  S
C612        C613   1.419   1_554  A
C612        C716   1.488       .  S
C613        C614   1.405       .  A
C613        C621   1.490       .  S
C614        H615   1.084       .  S
C617        C870   1.402   1_545  A
C617        C622   1.400       .  A
C617        H624   1.084       .  S
C618        C869   1.402       .  A
C618        C619   1.409       .  A
C619        C620   1.406       .  A
C619        N626   1.437       .  S
C620        C621   1.406       .  A
C620        H625   1.084       .  S
C621        C874   1.418       .  A
C622        C873   1.418   1_545  A
C622        N623   1.437       .  S
N623        H627   1.045   1_556  S
N623        H628   1.043   1_556  S
N626        H629   1.045       .  S
N626        H630   1.046       .  S
C631        C632   1.403       .  A
C631        C636   1.404       .  A
C631        H638   1.084       .  S
C632        C633   1.414       .  A
C633        C634   1.398       .  A
C633        N892   1.432       .  S
C634        C635   1.404       .  A
C634        H891   1.083       .  S
C635        C636   1.409       .  A
C636        N637   1.432       .  S
N637        H641   1.045       .  S
N637        H642   1.046       .  S
H639        C886   1.083       .  S
N640        C885   1.432       .  S
N640        H895   1.044       .  S
N640        H896   1.045       .  S
H643        N892   1.044       .  S
H644        N892   1.045       .  S
C645        C898   1.405   1_645  A
C645        C650   1.408       .  A
C645        H652   1.084       .  S
C646        C897   1.405   1_455  A
C647        C648   1.397       .  A
C647        N654   1.432       .  S
C648        H653   1.083       .  S
C649        C902   1.413       .  A
C650        C901   1.413   1_545  A
C650        N651   1.437       .  S
N651        H655   1.045       .  S
N651        H656   1.046       .  S
N654        H657   1.045       .  S
N654        H658   1.043       .  S
C659        C660   1.403   1_655  A
C659        C664   1.396       .  A
C659        H666   1.084       .  S
C661        C662   1.402       .  A
C661        N668   1.437       .  S
C662        H667   1.084       .  S
C663        C664   1.412   1_455  A
C664        N665   1.432       .  S
N665        H669   1.044       .  S
N665        H670   1.045       .  S
N668        H671   1.043       .  S
N668        H672   1.046       .  S
C673        C674   1.404       .  A
C673        C678   1.401       .  A
C673        H680   1.084       .  S
C675        C676   1.398       .  A
C675        N682   1.433       .  S
C676        H681   1.084       .  S
C677        C678   1.417       .  A
C678        N679   1.438       .  S
N679        H683   1.046       .  S
N679        H684   1.042       .  S
N682        H685   1.045       .  S
N682        H686   1.043       .  S
C687        C692   1.401       .  A
C687        H694   1.084       .  S
C688        C689   1.409       .  A
C689        C690   1.404       .  A
C689        N696   1.438       .  S
C690        C691   1.403       .  A
C690        H695   1.084       .  S
C692        N693   1.438       .  S
N693        H697   1.045       .  S
N693        H698   1.043       .  S
N696        H699   1.046       .  S
N696        H700   1.045       .  S
C701        C706   1.405       .  A
C701        H708   1.084       .  S
C702        C703   1.410       .  A
C703        C704   1.405       .  A
C703        N710   1.438       .  S
C704        C705   1.405       .  A
C704        H709   1.083       .  S
C706        N707   1.438       .  S
N707        H711   1.045       .  S
N707        H712   1.046       .  S
N710        H713   1.045       .  S
N710        H714   1.046       .  S
C715        C968   1.405   1_545  A
C715        C720   1.397       .  A
C715        H722   1.084       .  S
C716        C967   1.405       .  A
C716        C717   1.419       .  A
C717        C718   1.403       .  A
C717        N724   1.437       .  S
C718        C719   1.402       .  A
C718        H723   1.084       .  S
C719        C972   1.411       .  A
C720        C971   1.411       .  A
C720        N721   1.432       .  S
N721        H725   1.044       .  S
N721        H726   1.045       .  S
N724        H727   1.043       .  S
N724        H728   1.045       .  S
C729        C730   1.404       .  A
C729        C734   1.398       .  A
C729        H736   1.084       .  S
C730        C983   1.419       .  A
C731        C982   1.419       .  A
C731        C732   1.402       .  A
C731        N738   1.438       .  S
C732        C985   1.401       .  A
C732        H737   1.084       .  S
C733        C984   1.401       .  A
C733        C734   1.412       .  A
C734        N735   1.432       .  S
N735        H739   1.044       .  S
N735        H740   1.046       .  S
N738        H741   1.043       .  S
N738        H742   1.045       .  S
C743        C996   1.402       .  A
C743        C748   1.405       .  A
C743        H750   1.084       .  S
C744        C995   1.402       .  A
C744        C777   1.479       .  S
C745        C746   1.399       .  A
C745        N752   1.432       .  S
C746        H751   1.083       .  S
C747       C1000   1.414       .  A
C748        C999   1.414       .  A
C748        N749   1.437       .  S
N749        H753   1.045       .  S
N749        H754   1.046       .  S
N752        H755   1.045       .  S
N752        H756   1.043       .  S
N757        N758   1.323       .  A
N757        C761   1.345       .  A
N758        C759   1.347       .  A
N758       Cu764   2.081       .  S
C759        C760   1.384       .  A
C759        H762   1.082       .  S
C760        C761   1.382       .  A
C760        C985   1.476       .  S
Cu765       N775   2.073       .  S
Cu766       N774   2.069       .  S
N767        N768   1.323       .  A
N767        C771   1.346       .  A
N768        C769   1.344       .  A
C769        C770   1.382       .  A
C769        H772   1.082       .  S
C770        C771   1.384       .  A
C770        C971   1.476       .  S
C771        H773   1.082       .  S
N774        C778   1.344       .  A
N775        C776   1.345       .  A
C776        H779   1.081       .  S
C777        C778   1.384       .  A
C778        H780   1.082       .  S
N781        N782   1.323       .  A
N781        C785   1.345       .  A
N781       Cu789   2.077       .  S
N782        C783   1.345       .  A
N782       Cu788   2.075       .  S
C783        C784   1.383       .  A
C783        H786   1.082       .  S
C784        C785   1.383       .  A
C784        C954   1.476       .  S
C785        H787   1.082       .  S
Cu789       N799   2.077       .  S
Cu790       N792   2.067       .  S
Cu790       N798   2.067       .  S
N791        N792   1.322       .  A
N791        C795   1.346       .  A
N792        C793   1.344       .  A
C793        C794   1.381       .  A
C793        H796   1.082       .  S
C794        C795   1.383       .  A
C794        C940   1.474       .  S
C795        H797   1.082       .  S
N798        C802   1.343       .  A
N799        C800   1.345       .  A
C800        C801   1.387       .  A
C800        H803   1.082       .  S
C801        C999   1.484   1_565  S
C802        H804   1.081       .  S
C805        C810   1.404       .  A
C805        C957   1.490       .  S
C806        C807   1.403       .  A
C806        C926   1.487   1_455  S
C807        C808   1.403       .  A
C807        H812   1.084       .  S
C808        C912   1.488       .  S
C809        C810   1.403       .  A
C809        C943   1.485       .  S
C810        H811   1.084       .  S
N813        N814   1.322       .  A
N813        C817   1.346       .  A
N813       Cu821   2.076       .  S
N814        C815   1.344       .  A
C815        C816   1.383       .  A
C815        H818   1.082       .  S
C816        C817   1.384       .  A
C816        C870   1.478       .  S
C817        H819   1.082       .  S
Cu820       N823   2.073   1_455  S
Cu821       N831   2.076       .  S
Cu822       N824   2.075       .  S
Cu822       N830   2.075       .  S
N823        N824   1.322       .  A
N823        C827   1.345       .  A
N824        C825   1.345       .  A
C825        C826   1.383       .  A
C825        H828   1.082       .  S
C826        C827   1.384       .  A
C826        C884   1.478       .  S
C827        H829   1.081       .  S
N830        C834   1.345       .  A
N831        C832   1.345       .  A
C832        H835   1.081       .  S
C833        C834   1.384   1_455  A
C833        C898   1.482       .  S
C834        H836   1.082       .  S
N837        N838   1.323   1_655  A
N837        C841   1.344   1_655  A
N837       Cu845   2.073       .  S
N838        C839   1.346       .  A
C839        C840   1.383       .  A
C839        H842   1.082       .  S
C840        C841   1.382       .  A
C840        C915   1.475       .  S
C841        H843   1.081       .  S
Cu844       N847   2.077       .  S
Cu845       N855   2.073       .  S
Cu846       N848   2.068       .  S
Cu846       N854   2.068       .  S
N847        N848   1.322       .  A
N847        C851   1.346       .  A
N848        C849   1.344       .  A
C849        C850   1.380       .  A
C849        H852   1.082       .  S
C850        C851   1.384       .  A
C850        C929   1.474       .  S
C851        H853   1.082       .  S
N854        C858   1.343       .  A
N855        C856   1.346       .  A
C856        H859   1.082       .  S
C857        C858   1.385       .  A
C857        C901   1.484       .  S
C858        H860   1.082       .  S
C861        C862   1.416   1_566  A
C861        C866   1.404       .  A
C861        C887   1.488       .  S
C862        C863   1.402       .  A
C862        C982   1.487       .  S
C863        C864   1.404   1_545  A
C863        H868   1.085       .  S
C864        C865   1.419   1_554  A
C864        C968   1.488       .  S
C865        C866   1.405       .  A
C865        C873   1.490       .  S
C866        H867   1.084       .  S
C869        C874   1.400       .  A
C869        H876   1.084       .  S
C870        C871   1.409       .  A
C871        C872   1.406       .  A
C871        N878   1.437       .  S
C872        C873   1.406       .  A
C872        H877   1.084       .  S
C874        N875   1.437       .  S
N875        H879   1.045   1_556  S
N875        H880   1.043   1_556  S
N878        H881   1.045       .  S
N878        H882   1.046       .  S
C883        C884   1.403   1_545  A
C883        C888   1.404       .  A
C883        H890   1.084       .  S
C884        C885   1.414       .  A
C885        C886   1.398       .  A
C886        C887   1.404       .  A
C887        C888   1.409   1_565  A
C888        N889   1.432       .  S
N889        H893   1.045       .  S
N889        H894   1.046       .  S
C897        C902   1.408       .  A
C897        H904   1.084       .  S
C899        C900   1.397       .  A
C899        N906   1.432       .  S
C900        H905   1.083       .  S
C902        N903   1.437       .  S
N903        H907   1.045       .  S
N903        H908   1.046       .  S
N906        H909   1.045       .  S
N906        H910   1.043       .  S
C911        C912   1.403   1_655  A
C911        C916   1.396       .  A
C911        H918   1.084       .  S
C913        C914   1.402       .  A
C913        N920   1.437       .  S
C914        H919   1.084       .  S
C915        C916   1.412   1_455  A
C916        N917   1.432       .  S
N917        H921   1.044       .  S
N917        H922   1.045       .  S
N920        H923   1.043       .  S
N920        H924   1.046       .  S
C925        C926   1.404       .  A
C925        C930   1.401       .  A
C925        H932   1.084       .  S
C927        C928   1.398       .  A
C927        N934   1.433       .  S
C928        H933   1.084       .  S
C929        C930   1.417       .  A
C930        N931   1.438       .  S
N931        H935   1.046       .  S
N931        H936   1.042       .  S
N934        H937   1.045       .  S
N934        H938   1.043       .  S
C939        C944   1.401       .  A
C939        H946   1.084       .  S
C940        C941   1.409       .  A
C941        C942   1.404       .  A
C941        N948   1.438       .  S
C942        C943   1.403       .  A
C942        H947   1.084       .  S
C944        N945   1.438       .  S
N945        H949   1.045       .  S
N945        H950   1.043       .  S
N948        H951   1.046       .  S
N948        H952   1.046       .  S
C953        C958   1.405       .  A
C953        H960   1.084       .  S
C954        C955   1.410       .  A
C955        C956   1.405       .  A
C955        N962   1.438       .  S
C956        C957   1.405       .  A
C956        H961   1.083       .  S
C958        N959   1.438       .  S
N959        H963   1.045       .  S
N959        H964   1.046       .  S
N962        H965   1.045       .  S
N962        H966   1.046       .  S
C967        C972   1.397       .  A
C967        H974   1.084       .  S
C968        C969   1.419       .  A
C969        C970   1.403       .  A
C969        N976   1.437       .  S
C970        C971   1.402   1_565  A
C970        H975   1.084       .  S
C972        N973   1.432       .  S
N973        H977   1.044       .  S
N973        H978   1.045       .  S
N976        H979   1.043       .  S
N976        H980   1.045       .  S
C981        C982   1.404   1_565  A
C981        C986   1.398       .  A
C981        H988   1.084       .  S
C983        C984   1.402       .  A
C983        N990   1.438       .  S
C984        H989   1.084       .  S
C985        C986   1.412   1_545  A
C986        N987   1.432       .  S
N987        H991   1.044       .  S
N987        H992   1.046       .  S
N990        H993   1.043       .  S
N990        H994   1.045       .  S
C995       C1000   1.405       .  A
C995       H1002   1.084       .  S
C997        C998   1.399       .  A
C997       N1004   1.432       .  S
C998       H1003   1.083       .  S
C1000      N1001   1.437       .  S
N1001      H1005   1.045       .  S
N1001      H1006   1.046       .  S
N1004      H1007   1.045       .  S
N1004      H1008   1.043       .  S
