geometry optimzed in LAMMPS
_audit_creation_date              2020-11-30 
_audit_creation_method            'lammps2cif' 
_symmetry_space_group_name_H-M    'P1' 
_symmetry_Int_Tables_number       1 
_symmetry_cell_setting            triclinic 
loop_ 
_symmetry_equiv_pos_as_xyz 
  x,y,z 
_cell_length_a                    28.480101220422085 
_cell_length_b                    28.543394055570335 
_cell_length_c                    20.993632771220724 
_cell_angle_alpha                 90.89249425416978 
_cell_angle_beta                  90.62111579924259 
_cell_angle_gamma                 120.03529078328606 
loop_ 
_atom_site_label 
_atom_site_type_symbol 
_atom_site_fract_x 
_atom_site_fract_y 
_atom_site_fract_z 
_atom_site_charge 
O1          O  0.24671782  0.17553067  0.19821547    -0.82940
C2          C  0.05958782  0.03322514  0.32892330     0.96410
O3          O  0.08868508  0.08458571  0.32584035    -0.72060
O4          O  0.17870580  0.17794299  0.30243606    -0.75650
Al5        Al  0.13045981  0.12085405  0.25065333     1.48980
C6          C  0.22306395  0.19406340  0.33078104     0.91660
O7          O  0.24858305  0.07465677  0.30271624    -0.81870
O8          O  0.17705596  0.00265480  0.19917087    -0.75470
Al9        Al  0.23886125  0.12073630  0.25043319     1.90120
O10         O  0.16954937  0.00876989  0.32684712    -0.74500
O11         O  0.08624130  0.00577438  0.17556438    -0.74350
O12         O  0.07506568  0.00464698  0.30106926    -0.80010
O13         O  0.07334181  0.07262745  0.19941153    -0.78210
O14         O  0.16658403  0.08469490  0.25059629    -1.14350
O15         O  0.16672403  0.16215393  0.17489546    -0.73540
C16         C  0.21802223  0.19061301  0.16983701     0.97170
C17         C  0.22111743  0.03153218  0.33143959     0.93570
Al18       Al  0.13053899  0.01250584  0.25065459     1.55560
O19         O  0.24553132  0.16515172  0.32652332    -0.78160
C20         C  0.05689349  0.02788097  0.17206716     0.97740
C21         C  0.22008431  0.03011220  0.17018351     0.92620
O22         O  0.24263880  0.08154105  0.17411103    -0.83480
C23         C  0.24796607  0.99906934  0.14254176    -0.03630
C24         C  0.25223036  0.00326405  0.35860296    -0.03630
C25         C  0.04651607  0.01345768  0.03683392    -0.27460
C26         C  0.24799585  0.99829821  0.06894493    -0.15540
C27         C  0.20063491  0.23246107  0.03106455     0.35090
C28         C  0.20399004  0.23496102  0.46398702    -0.26910
C29         C  0.25328551  0.00257134  0.43219959    -0.16150
C30         C  0.04972192  0.01446720  0.47077769     0.36180
N31         N  0.10041053  0.02399091  0.44631668    -0.90400
H32         H  0.08365328  0.02393315  0.06241124     0.17290
H33         H  0.16715737  0.22183032  0.43620248     0.17280
N34         N  0.14910672  0.21396374  0.06029795    -0.89430
H35         H  0.12101405  0.06158979  0.42498029     0.34660
H36         H  0.09392563  0.99188478  0.41595427     0.39760
H37         H  0.13436924  0.17363256  0.07194593     0.39380
H38         H  0.12091282  0.21293020  0.02725785     0.34270
O39         O  0.24671782  0.17553067  0.69821547    -0.82940
C40         C  0.05958782  0.03322514  0.82892330     0.96410
O41         O  0.08868508  0.08458571  0.82584035    -0.72060
O42         O  0.17870579  0.17794299  0.80243606    -0.75650
Al43       Al  0.13045981  0.12085405  0.75065333     1.48980
C44         C  0.22306395  0.19406340  0.83078104     0.91660
O45         O  0.24858304  0.07465677  0.80271624    -0.81870
O46         O  0.17705596  0.00265479  0.69917086    -0.75470
Al47       Al  0.23886124  0.12073630  0.75043319     1.90120
O48         O  0.16954936  0.00876989  0.82684712    -0.74500
O49         O  0.08624130  0.00577437  0.67556438    -0.74350
O50         O  0.07506568  0.00464697  0.80106926    -0.80010
O51         O  0.07334181  0.07262745  0.69941152    -0.78210
O52         O  0.16658403  0.08469490  0.75059629    -1.14350
O53         O  0.16672402  0.16215392  0.67489545    -0.73540
C54         C  0.21802223  0.19061301  0.66983701     0.97170
C55         C  0.22111743  0.03153218  0.83143959     0.93570
Al56       Al  0.13053898  0.01250584  0.75065459     1.55560
O57         O  0.24553131  0.16515171  0.82652332    -0.78160
C58         C  0.05689348  0.02788097  0.67206716     0.97740
C59         C  0.22008430  0.03011219  0.67018351     0.92620
O60         O  0.24263879  0.08154105  0.67411103    -0.83480
C61         C  0.24796607  0.99906934  0.64254175    -0.03630
C62         C  0.25223036  0.00326405  0.85860296    -0.03630
C63         C  0.04651607  0.01345768  0.53683392    -0.27460
C64         C  0.24799585  0.99829821  0.56894493    -0.15540
C65         C  0.20063491  0.23246107  0.53106455     0.35090
C66         C  0.20399003  0.23496103  0.96398702    -0.26910
C67         C  0.25328551  0.00257134  0.93219959    -0.16150
C68         C  0.04972192  0.01446719  0.97077768     0.36180
N69         N  0.10041052  0.02399089  0.94631667    -0.90400
H70         H  0.08365328  0.02393315  0.56241124     0.17290
H71         H  0.16715737  0.22183035  0.93620249     0.17280
N72         N  0.14910672  0.21396372  0.56029794    -0.89430
H73         H  0.12101405  0.06158978  0.92498028     0.34660
H74         H  0.09392561  0.99188476  0.91595426     0.39760
H75         H  0.13436922  0.17363254  0.57194589     0.39380
H76         H  0.12091283  0.21293021  0.52725785     0.34270
O77         O  0.24671294  0.42553059  0.19821527    -0.82940
C78         C  0.05958332  0.28322676  0.32892197     0.96410
O79         O  0.08867883  0.33458722  0.32583666    -0.72060
O80         O  0.17870056  0.42794344  0.30243490    -0.75650
Al81       Al  0.13045447  0.37085472  0.25065156     1.48980
C82         C  0.22305855  0.44406349  0.33078037     0.91660
O83         O  0.24857652  0.32465653  0.30271627    -0.81870
O84         O  0.17704872  0.25265312  0.19916940    -0.75470
Al85       Al  0.23885524  0.37073579  0.25043296     1.90120
O86         O  0.16954370  0.25876760  0.32684529    -0.74500
O87         O  0.08623565  0.25577528  0.17556431    -0.74350
O88         O  0.07506192  0.25464861  0.30106953    -0.80010
O89         O  0.07333605  0.32262843  0.19941019    -0.78210
O90         O  0.16657826  0.33469480  0.25059577    -1.14350
O91         O  0.16671940  0.41215390  0.17489428    -0.73540
C92         C  0.21801761  0.44061308  0.16983670     0.97170
C93         C  0.22111185  0.28153135  0.33143866     0.93570
Al94       Al  0.13053315  0.26250560  0.25065380     1.55560
O95         O  0.24552566  0.41515162  0.32652274    -0.78160
C96         C  0.05688735  0.27788127  0.17206757     0.97740
C97         C  0.22007759  0.28011090  0.17018337     0.92620
O98         O  0.24263203  0.33153982  0.17411124    -0.83480
C99         C  0.24796002  0.24906867  0.14254224    -0.03630
C100        C  0.25222700  0.25326554  0.35860304    -0.03630
C101        C  0.04651308  0.26346856  0.03683594    -0.27460
C102        C  0.24799012  0.24829868  0.06894537    -0.15540
C103        C  0.20062916  0.48246381  0.03106521     0.35090
C104        C  0.20398422  0.48496426  0.46398759    -0.26910
C105        C  0.25328290  0.25257580  0.43219997    -0.16150
C106        C  0.04972291  0.26448686  0.47078058     0.36180
N107        N  0.10042370  0.27404270  0.44632393    -0.90400
H108        H  0.08365197  0.27395142  0.06241390     0.17290
H109        H  0.16715210  0.47183649  0.43620331     0.17280
N110        N  0.14910135  0.46396877  0.06029886    -0.89430
H111        H  0.12101051  0.31164597  0.42499119     0.34660
H112        H  0.09396206  0.24194666  0.41596099     0.39760
H113        H  0.13436551  0.42363959  0.07195477     0.39380
H114        H  0.12090565  0.46292866  0.02725677     0.34270
O115        O  0.24671293  0.42553059  0.69821527    -0.82940
C116        C  0.05958331  0.28322676  0.82892197     0.96410
O117        O  0.08867883  0.33458721  0.82583666    -0.72060
O118        O  0.17870055  0.42794344  0.80243490    -0.75650
Al119      Al  0.13045446  0.37085472  0.75065156     1.48980
C120        C  0.22305854  0.44406349  0.83078037     0.91660
O121        O  0.24857652  0.32465652  0.80271627    -0.81870
O122        O  0.17704871  0.25265312  0.69916940    -0.75470
Al123      Al  0.23885523  0.37073578  0.75043296     1.90120
O124        O  0.16954370  0.25876760  0.82684529    -0.74500
O125        O  0.08623564  0.25577528  0.67556431    -0.74350
O126        O  0.07506191  0.25464860  0.80106953    -0.80010
O127        O  0.07333605  0.32262842  0.69941019    -0.78210
O128        O  0.16657825  0.33469480  0.75059577    -1.14350
O129        O  0.16671939  0.41215389  0.67489428    -0.73540
C130        C  0.21801760  0.44061308  0.66983670     0.97170
C131        C  0.22111185  0.28153135  0.83143866     0.93570
Al132      Al  0.13053315  0.26250560  0.75065380     1.55560
O133        O  0.24552566  0.41515161  0.82652274    -0.78160
C134        C  0.05688734  0.27788127  0.67206757     0.97740
C135        C  0.22007758  0.28011090  0.67018337     0.92620
O136        O  0.24263203  0.33153981  0.67411124    -0.83480
C137        C  0.24796002  0.24906867  0.64254224    -0.03630
C138        C  0.25222699  0.25326553  0.85860304    -0.03630
C139        C  0.04651309  0.26346859  0.53683595    -0.27460
C140        C  0.24799012  0.24829869  0.56894538    -0.15540
C141        C  0.20062916  0.48246379  0.53106520     0.35090
C142        C  0.20398422  0.48496428  0.96398759    -0.26910
C143        C  0.25328289  0.25257579  0.93219997    -0.16150
C144        C  0.04972289  0.26448682  0.97078057     0.36180
N145        N  0.10042367  0.27404261  0.94632391    -0.90400
H146        H  0.08365198  0.27395147  0.56241391     0.17290
H147        H  0.16715210  0.47183653  0.93620332     0.17280
N148        N  0.14910135  0.46396874  0.56029886    -0.89430
H149        H  0.12101050  0.31164588  0.92499117     0.34660
H150        H  0.09396199  0.24194657  0.91596098     0.39760
H151        H  0.13436549  0.42363955  0.57195471     0.39380
H152        H  0.12090566  0.46292867  0.52725678     0.34270
O153        O  0.24671262  0.67552949  0.19821620    -0.82940
C154        C  0.05957913  0.53322761  0.32892294     0.96410
O155        O  0.08867566  0.58458837  0.32583813    -0.72060
O156        O  0.17870311  0.67794523  0.30243715    -0.75650
Al157      Al  0.13045356  0.62085645  0.25065221     1.48980
C158        C  0.22306209  0.69406482  0.33078147     0.91660
O159        O  0.24857215  0.57465470  0.30271441    -0.81870
O160        O  0.17704424  0.50265260  0.19917097    -0.75470
Al161      Al  0.23885289  0.62073467  0.25043263     1.90120
O162        O  0.16953888  0.50876834  0.32684681    -0.74500
O163        O  0.08623125  0.50577570  0.17556523    -0.74350
O164        O  0.07505735  0.50464947  0.30106995    -0.80010
O165        O  0.07333316  0.57263021  0.19940953    -0.78210
O166        O  0.16657544  0.58469515  0.25059641    -1.14350
O167        O  0.16672029  0.66215535  0.17489335    -0.73540
C168        C  0.21801897  0.69061289  0.16983623     0.97170
C169        C  0.22110703  0.53153098  0.33143873     0.93570
Al170      Al  0.13052875  0.51250595  0.25065487     1.55560
O171        O  0.24552722  0.66515135  0.32652279    -0.78160
C172        C  0.05688343  0.52788220  0.17206761     0.97740
C173        C  0.22007279  0.53011020  0.17018401     0.92620
O174        O  0.24262694  0.58153885  0.17411052    -0.83480
C175        C  0.24795538  0.49906874  0.14254251    -0.03630
C176        C  0.25222170  0.50326530  0.35860327    -0.03630
C177        C  0.04650559  0.51346286  0.03683548    -0.27460
C178        C  0.24798417  0.49829835  0.06894558    -0.15540
C179        C  0.20063612  0.73245863  0.03106506     0.35090
C180        C  0.20399136  0.73495554  0.46398741    -0.26910
C181        C  0.25327619  0.50257451  0.43220014    -0.16150
C182        C  0.04971420  0.51447863  0.47077996     0.36180
N183        N  0.10041033  0.52402225  0.44632178    -0.90400
H184        H  0.08364344  0.52394138  0.06241310     0.17290
H185        H  0.16715733  0.72181738  0.43620225     0.17280
N186        N  0.14910760  0.71396016  0.06029776    -0.89430
H187        H  0.12100387  0.56162425  0.42498848     0.34660
H188        H  0.09393985  0.49192284  0.41595833     0.39760
H189        H  0.13436170  0.67362309  0.07192473     0.39380
H190        H  0.12092010  0.71294684  0.02726265     0.34270
O191        O  0.24671261  0.67552948  0.69821620    -0.82940
C192        C  0.05957912  0.53322760  0.82892294     0.96410
O193        O  0.08867565  0.58458837  0.82583814    -0.72060
O194        O  0.17870310  0.67794523  0.80243715    -0.75650
Al195      Al  0.13045356  0.62085644  0.75065221     1.48980
C196        C  0.22306209  0.69406481  0.83078147     0.91660
O197        O  0.24857214  0.57465470  0.80271441    -0.81870
O198        O  0.17704424  0.50265260  0.69917097    -0.75470
Al199      Al  0.23885289  0.62073466  0.75043263     1.90120
O200        O  0.16953888  0.50876834  0.82684681    -0.74500
O201        O  0.08623125  0.50577570  0.67556523    -0.74350
O202        O  0.07505734  0.50464947  0.80106995    -0.80010
O203        O  0.07333315  0.57263021  0.69940954    -0.78210
O204        O  0.16657544  0.58469515  0.75059641    -1.14350
O205        O  0.16672029  0.66215535  0.67489335    -0.73540
C206        C  0.21801896  0.69061289  0.66983623     0.97170
C207        C  0.22110703  0.53153097  0.83143873     0.93570
Al208      Al  0.13052875  0.51250595  0.75065487     1.55560
O209        O  0.24552722  0.66515135  0.82652279    -0.78160
C210        C  0.05688343  0.52788220  0.67206762     0.97740
C211        C  0.22007278  0.53011020  0.67018400     0.92620
O212        O  0.24262693  0.58153885  0.67411051    -0.83480
C213        C  0.24795538  0.49906874  0.64254251    -0.03630
C214        C  0.25222170  0.50326530  0.85860327    -0.03630
C215        C  0.04650560  0.51346289  0.53683549    -0.27460
C216        C  0.24798417  0.49829835  0.56894558    -0.15540
C217        C  0.20063611  0.73245863  0.53106506     0.35090
C218        C  0.20399136  0.73495554  0.96398741    -0.26910
C219        C  0.25327618  0.50257451  0.93220014    -0.16150
C220        C  0.04971418  0.51447859  0.97077995     0.36180
N221        N  0.10041029  0.52402216  0.94632176    -0.90400
H222        H  0.08364345  0.52394143  0.56241311     0.17290
H223        H  0.16715733  0.72181738  0.93620225     0.17280
N224        N  0.14910759  0.71396016  0.56029776    -0.89430
H225        H  0.12100386  0.56162417  0.92498846     0.34660
H226        H  0.09393979  0.49192275  0.91595831     0.39760
H227        H  0.13436170  0.67362309  0.57192473     0.39380
H228        H  0.12092010  0.71294683  0.52726264     0.34270
O229        O  0.24671980  0.92553103  0.19821678    -0.82940
C230        C  0.05958480  0.78322771  0.32892126     0.96410
O231        O  0.08867967  0.83458826  0.32583133    -0.72060
O232        O  0.17870676  0.92794388  0.30243425    -0.75650
Al233      Al  0.13045904  0.87085606  0.25064880     1.48980
C234        C  0.22306503  0.94406285  0.33077941     0.91660
O235        O  0.24857864  0.82465623  0.30271414    -0.81870
O236        O  0.17705007  0.75265419  0.19917203    -0.75470
Al237      Al  0.23885869  0.87073524  0.25043263     1.90120
O238        O  0.16954630  0.75877095  0.32684914    -0.74500
O239        O  0.08623393  0.75577201  0.17556891    -0.74350
O240        O  0.07506378  0.75464826  0.30107340    -0.80010
O241        O  0.07334001  0.82263040  0.19940633    -0.78210
O242        O  0.16658085  0.83469502  0.25059564    -1.14350
O243        O  0.16672746  0.91215537  0.17489197    -0.73540
C244        C  0.21802604  0.94061388  0.16983613     0.97170
C245        C  0.22111429  0.78153355  0.33144018     0.93570
Al246      Al  0.13053458  0.76250582  0.25065699     1.55560
O247        O  0.24553064  0.91514988  0.32652215    -0.78160
C248        C  0.05688743  0.77787997  0.17206998     0.97740
C249        C  0.22007857  0.78011132  0.17018474     0.92620
O250        O  0.24263362  0.83154001  0.17411103    -0.83480
C251        C  0.24795993  0.74906895  0.14254353    -0.03630
C252        C  0.25222890  0.75326787  0.35860390    -0.03630
C253        C  0.04651826  0.76348576  0.03683972    -0.27460
C254        C  0.24799167  0.74830186  0.06894706    -0.15540
C255        C  0.20064071  0.98246327  0.03106551     0.35090
C256        C  0.20399486  0.98496463  0.46398810    -0.26910
C257        C  0.25328677  0.75258095  0.43220151    -0.16150
C258        C  0.04973193  0.76451206  0.47078524     0.36180
N259        N  0.10044660  0.77410420  0.44633422    -0.90400
H260        H  0.08365959  0.77397944  0.06241890     0.17290
H261        H  0.16716267  0.97183851  0.43620471     0.17280
N262        N  0.14911278  0.96396339  0.06030035    -0.89430
H263        H  0.12101403  0.81171190  0.42500495     0.34660
H264        H  0.09401128  0.74201799  0.41597320     0.39760
H265        H  0.13437610  0.92363123  0.07194311     0.39380
H266        H  0.12091827  0.96293025  0.02726206     0.34270
O267        O  0.24671979  0.92553103  0.69821678    -0.82940
C268        C  0.05958480  0.78322771  0.82892125     0.96410
O269        O  0.08867967  0.83458826  0.82583133    -0.72060
O270        O  0.17870675  0.92794388  0.80243425    -0.75650
Al271      Al  0.13045904  0.87085606  0.75064880     1.48980
C272        C  0.22306502  0.94406285  0.83077941     0.91660
O273        O  0.24857864  0.82465623  0.80271414    -0.81870
O274        O  0.17705006  0.75265419  0.69917203    -0.75470
Al275      Al  0.23885869  0.87073524  0.75043263     1.90120
O276        O  0.16954629  0.75877095  0.82684914    -0.74500
O277        O  0.08623393  0.75577201  0.67556891    -0.74350
O278        O  0.07506378  0.75464826  0.80107340    -0.80010
O279        O  0.07334001  0.82263039  0.69940633    -0.78210
O280        O  0.16658084  0.83469502  0.75059564    -1.14350
O281        O  0.16672746  0.91215537  0.67489197    -0.73540
C282        C  0.21802603  0.94061387  0.66983613     0.97170
C283        C  0.22111429  0.78153355  0.83144018     0.93570
Al284      Al  0.13053458  0.76250582  0.75065699     1.55560
O285        O  0.24553064  0.91514988  0.82652215    -0.78160
C286        C  0.05688743  0.77787997  0.67206998     0.97740
C287        C  0.22007857  0.78011131  0.67018474     0.92620
O288        O  0.24263362  0.83154000  0.67411103    -0.83480
C289        C  0.24795993  0.74906895  0.64254352    -0.03630
C290        C  0.25222890  0.75326787  0.85860390    -0.03630
C291        C  0.04651826  0.76348575  0.53683972    -0.27460
C292        C  0.24799166  0.74830185  0.56894706    -0.15540
C293        C  0.20064071  0.98246327  0.53106551     0.35090
C294        C  0.20399486  0.98496463  0.96398810    -0.26910
C295        C  0.25328677  0.75258095  0.93220151    -0.16150
C296        C  0.04973193  0.76451207  0.97078524     0.36180
N297        N  0.10044661  0.77410423  0.94633423    -0.90400
H298        H  0.08365958  0.77397942  0.56241890     0.17290
H299        H  0.16716267  0.97183851  0.93620471     0.17280
N300        N  0.14911278  0.96396339  0.56030034    -0.89430
H301        H  0.12101403  0.81171193  0.92500495     0.34660
H302        H  0.09401130  0.74201802  0.91597321     0.39760
H303        H  0.13437609  0.92363123  0.57194310     0.39380
H304        H  0.12091827  0.96293025  0.52726205     0.34270
O305        O  0.49671782  0.17553067  0.19821547    -0.82940
C306        C  0.30958782  0.03322514  0.32892330     0.96410
O307        O  0.33868508  0.08458571  0.32584035    -0.72060
O308        O  0.42870580  0.17794299  0.30243606    -0.75650
Al309      Al  0.38045981  0.12085405  0.25065333     1.48980
C310        C  0.47306395  0.19406340  0.33078104     0.91660
O311        O  0.49858305  0.07465677  0.30271624    -0.81870
O312        O  0.42705596  0.00265479  0.19917087    -0.75470
Al313      Al  0.48886125  0.12073630  0.25043319     1.90120
O314        O  0.41954937  0.00876989  0.32684712    -0.74500
O315        O  0.33624130  0.00577438  0.17556438    -0.74350
O316        O  0.32506568  0.00464698  0.30106926    -0.80010
O317        O  0.32334181  0.07262745  0.19941153    -0.78210
O318        O  0.41658403  0.08469490  0.25059629    -1.14350
O319        O  0.41672403  0.16215393  0.17489546    -0.73540
C320        C  0.46802223  0.19061301  0.16983701     0.97170
C321        C  0.47111743  0.03153218  0.33143959     0.93570
Al322      Al  0.38053899  0.01250584  0.25065459     1.55560
O323        O  0.49553131  0.16515172  0.32652332    -0.78160
C324        C  0.30689349  0.02788097  0.17206716     0.97740
C325        C  0.47008431  0.03011220  0.17018351     0.92620
O326        O  0.49263879  0.08154105  0.17411103    -0.83480
C327        C  0.49796607  0.99906934  0.14254175    -0.03630
C328        C  0.50223036  0.00326405  0.35860296    -0.03630
C329        C  0.29651607  0.01345769  0.03683392    -0.27460
C330        C  0.49799585  0.99829821  0.06894493    -0.15540
C331        C  0.45063491  0.23246107  0.03106455     0.35090
C332        C  0.45399004  0.23496103  0.46398702    -0.26910
C333        C  0.50328551  0.00257134  0.43219959    -0.16150
C334        C  0.29972192  0.01446719  0.47077769     0.36180
N335        N  0.35041053  0.02399091  0.44631668    -0.90400
H336        H  0.33365328  0.02393315  0.06241124     0.17290
H337        H  0.41715737  0.22183034  0.43620248     0.17280
N338        N  0.39910672  0.21396374  0.06029795    -0.89430
H339        H  0.37101405  0.06158979  0.42498029     0.34660
H340        H  0.34392562  0.99188478  0.41595426     0.39760
H341        H  0.38436924  0.17363257  0.07194593     0.39380
H342        H  0.37091282  0.21293020  0.02725785     0.34270
O343        O  0.49671782  0.17553067  0.69821547    -0.82940
C344        C  0.30958782  0.03322514  0.82892330     0.96410
O345        O  0.33868508  0.08458571  0.82584034    -0.72060
O346        O  0.42870579  0.17794299  0.80243606    -0.75650
Al347      Al  0.38045981  0.12085405  0.75065333     1.48980
C348        C  0.47306395  0.19406340  0.83078104     0.91660
O349        O  0.49858304  0.07465677  0.80271624    -0.81870
O350        O  0.42705596  0.00265479  0.69917086    -0.75470
Al351      Al  0.48886124  0.12073630  0.75043319     1.90120
O352        O  0.41954936  0.00876989  0.82684712    -0.74500
O353        O  0.33624129  0.00577437  0.67556438    -0.74350
O354        O  0.32506568  0.00464697  0.80106926    -0.80010
O355        O  0.32334181  0.07262745  0.69941152    -0.78210
O356        O  0.41658403  0.08469490  0.75059629    -1.14350
O357        O  0.41672402  0.16215392  0.67489545    -0.73540
C358        C  0.46802223  0.19061301  0.66983701     0.97170
C359        C  0.47111743  0.03153218  0.83143958     0.93570
Al360      Al  0.38053898  0.01250584  0.75065459     1.55560
O361        O  0.49553131  0.16515171  0.82652332    -0.78160
C362        C  0.30689348  0.02788097  0.67206716     0.97740
C363        C  0.47008430  0.03011219  0.67018351     0.92620
O364        O  0.49263879  0.08154105  0.67411103    -0.83480
C365        C  0.49796607  0.99906934  0.64254175    -0.03630
C366        C  0.50223036  0.00326405  0.85860296    -0.03630
C367        C  0.29651607  0.01345768  0.53683392    -0.27460
C368        C  0.49799585  0.99829821  0.56894493    -0.15540
C369        C  0.45063491  0.23246107  0.53106455     0.35090
C370        C  0.45399003  0.23496104  0.96398702    -0.26910
C371        C  0.50328551  0.00257134  0.93219958    -0.16150
C372        C  0.29972192  0.01446720  0.97077769     0.36180
N373        N  0.35041053  0.02399091  0.94631668    -0.90400
H374        H  0.33365328  0.02393315  0.56241124     0.17290
H375        H  0.41715737  0.22183035  0.93620249     0.17280
N376        N  0.39910672  0.21396373  0.56029794    -0.89430
H377        H  0.37101405  0.06158979  0.92498028     0.34660
H378        H  0.34392562  0.99188478  0.91595426     0.39760
H379        H  0.38436922  0.17363255  0.57194590     0.39380
H380        H  0.37091283  0.21293022  0.52725785     0.34270
O381        O  0.49671294  0.42553059  0.19821527    -0.82940
C382        C  0.30958332  0.28322676  0.32892197     0.96410
O383        O  0.33867883  0.33458722  0.32583665    -0.72060
O384        O  0.42870056  0.42794344  0.30243490    -0.75650
Al385      Al  0.38045447  0.37085473  0.25065156     1.48980
C386        C  0.47305855  0.44406349  0.33078037     0.91660
O387        O  0.49857652  0.32465653  0.30271627    -0.81870
O388        O  0.42704872  0.25265312  0.19916940    -0.75470
Al389      Al  0.48885524  0.37073579  0.25043296     1.90120
O390        O  0.41954370  0.25876760  0.32684529    -0.74500
O391        O  0.33623565  0.25577528  0.17556431    -0.74350
O392        O  0.32506192  0.25464861  0.30106953    -0.80010
O393        O  0.32333605  0.32262843  0.19941019    -0.78210
O394        O  0.41657826  0.33469480  0.25059577    -1.14350
O395        O  0.41671940  0.41215390  0.17489428    -0.73540
C396        C  0.46801761  0.44061308  0.16983670     0.97170
C397        C  0.47111185  0.28153135  0.33143866     0.93570
Al398      Al  0.38053316  0.26250560  0.25065380     1.55560
O399        O  0.49552566  0.41515162  0.32652274    -0.78160
C400        C  0.30688735  0.27788127  0.17206757     0.97740
C401        C  0.47007759  0.28011090  0.17018337     0.92620
O402        O  0.49263203  0.33153982  0.17411124    -0.83480
C403        C  0.49796002  0.24906867  0.14254224    -0.03630
C404        C  0.50222700  0.25326554  0.35860304    -0.03630
C405        C  0.29651308  0.26346857  0.03683594    -0.27460
C406        C  0.49799012  0.24829868  0.06894537    -0.15540
C407        C  0.45062916  0.48246381  0.03106521     0.35090
C408        C  0.45398422  0.48496426  0.46398759    -0.26910
C409        C  0.50328289  0.25257579  0.43219997    -0.16150
C410        C  0.29972291  0.26448687  0.47078058     0.36180
N411        N  0.35042371  0.27404273  0.44632393    -0.90400
H412        H  0.33365197  0.27395142  0.06241390     0.17290
H413        H  0.41715210  0.47183649  0.43620331     0.17280
N414        N  0.39910135  0.46396877  0.06029886    -0.89430
H415        H  0.37101051  0.31164600  0.42499120     0.34660
H416        H  0.34396208  0.24194670  0.41596100     0.39760
H417        H  0.38436551  0.42363959  0.07195477     0.39380
H418        H  0.37090565  0.46292866  0.02725677     0.34270
O419        O  0.49671293  0.42553059  0.69821527    -0.82940
C420        C  0.30958331  0.28322676  0.82892197     0.96410
O421        O  0.33867883  0.33458721  0.82583666    -0.72060
O422        O  0.42870055  0.42794344  0.80243490    -0.75650
Al423      Al  0.38045446  0.37085472  0.75065156     1.48980
C424        C  0.47305855  0.44406349  0.83078037     0.91660
O425        O  0.49857652  0.32465652  0.80271627    -0.81870
O426        O  0.42704871  0.25265312  0.69916940    -0.75470
Al427      Al  0.48885523  0.37073578  0.75043296     1.90120
O428        O  0.41954370  0.25876760  0.82684529    -0.74500
O429        O  0.33623564  0.25577528  0.67556431    -0.74350
O430        O  0.32506191  0.25464860  0.80106953    -0.80010
O431        O  0.32333605  0.32262842  0.69941019    -0.78210
O432        O  0.41657825  0.33469480  0.75059577    -1.14350
O433        O  0.41671939  0.41215389  0.67489428    -0.73540
C434        C  0.46801760  0.44061308  0.66983670     0.97170
C435        C  0.47111185  0.28153135  0.83143866     0.93570
Al436      Al  0.38053315  0.26250560  0.75065380     1.55560
O437        O  0.49552566  0.41515161  0.82652274    -0.78160
C438        C  0.30688734  0.27788127  0.67206757     0.97740
C439        C  0.47007758  0.28011090  0.67018337     0.92620
O440        O  0.49263203  0.33153981  0.67411124    -0.83480
C441        C  0.49796002  0.24906867  0.64254224    -0.03630
C442        C  0.50222699  0.25326553  0.85860304    -0.03630
C443        C  0.29651309  0.26346860  0.53683595    -0.27460
C444        C  0.49799012  0.24829869  0.56894538    -0.15540
C445        C  0.45062916  0.48246379  0.53106520     0.35090
C446        C  0.45398422  0.48496428  0.96398759    -0.26910
C447        C  0.50328289  0.25257579  0.93219997    -0.16150
C448        C  0.29972289  0.26448682  0.97078057     0.36180
N449        N  0.35042367  0.27404262  0.94632392    -0.90400
H450        H  0.33365198  0.27395148  0.56241391     0.17290
H451        H  0.41715210  0.47183652  0.93620332     0.17280
N452        N  0.39910135  0.46396874  0.56029886    -0.89430
H453        H  0.37101050  0.31164588  0.92499118     0.34660
H454        H  0.34396199  0.24194657  0.91596098     0.39760
H455        H  0.38436549  0.42363955  0.57195471     0.39380
H456        H  0.37090566  0.46292867  0.52725678     0.34270
O457        O  0.49671262  0.67552949  0.19821620    -0.82940
C458        C  0.30957913  0.53322761  0.32892294     0.96410
O459        O  0.33867566  0.58458837  0.32583813    -0.72060
O460        O  0.42870311  0.67794523  0.30243715    -0.75650
Al461      Al  0.38045356  0.62085645  0.25065221     1.48980
C462        C  0.47306209  0.69406482  0.33078147     0.91660
O463        O  0.49857215  0.57465470  0.30271441    -0.81870
O464        O  0.42704424  0.50265260  0.19917097    -0.75470
Al465      Al  0.48885289  0.62073467  0.25043263     1.90120
O466        O  0.41953888  0.50876834  0.32684681    -0.74500
O467        O  0.33623125  0.50577570  0.17556523    -0.74350
O468        O  0.32505735  0.50464947  0.30106995    -0.80010
O469        O  0.32333316  0.57263021  0.19940953    -0.78210
O470        O  0.41657544  0.58469515  0.25059641    -1.14350
O471        O  0.41672029  0.66215535  0.17489335    -0.73540
C472        C  0.46801897  0.69061289  0.16983623     0.97170
C473        C  0.47110703  0.53153098  0.33143873     0.93570
Al474      Al  0.38052875  0.51250595  0.25065487     1.55560
O475        O  0.49552722  0.66515135  0.32652279    -0.78160
C476        C  0.30688343  0.52788220  0.17206761     0.97740
C477        C  0.47007279  0.53011020  0.17018401     0.92620
O478        O  0.49262694  0.58153886  0.17411052    -0.83480
C479        C  0.49795538  0.49906874  0.14254251    -0.03630
C480        C  0.50222170  0.50326530  0.35860327    -0.03630
C481        C  0.29650559  0.51346286  0.03683548    -0.27460
C482        C  0.49798417  0.49829835  0.06894558    -0.15540
C483        C  0.45063612  0.73245863  0.03106506     0.35090
C484        C  0.45399136  0.73495554  0.46398741    -0.26910
C485        C  0.50327619  0.50257451  0.43220014    -0.16150
C486        C  0.29971420  0.51447863  0.47077996     0.36180
N487        N  0.35041032  0.52402224  0.44632178    -0.90400
H488        H  0.33364344  0.52394138  0.06241310     0.17290
H489        H  0.41715733  0.72181738  0.43620225     0.17280
N490        N  0.39910760  0.71396016  0.06029776    -0.89430
H491        H  0.37100387  0.56162425  0.42498848     0.34660
H492        H  0.34393985  0.49192283  0.41595833     0.39760
H493        H  0.38436170  0.67362309  0.07192473     0.39380
H494        H  0.37092010  0.71294685  0.02726265     0.34270
O495        O  0.49671261  0.67552948  0.69821620    -0.82940
C496        C  0.30957912  0.53322760  0.82892294     0.96410
O497        O  0.33867565  0.58458837  0.82583814    -0.72060
O498        O  0.42870310  0.67794523  0.80243715    -0.75650
Al499      Al  0.38045356  0.62085644  0.75065221     1.48980
C500        C  0.47306209  0.69406481  0.83078147     0.91660
O501        O  0.49857214  0.57465470  0.80271441    -0.81870
O502        O  0.42704424  0.50265260  0.69917097    -0.75470
Al503      Al  0.48885289  0.62073466  0.75043263     1.90120
O504        O  0.41953888  0.50876834  0.82684681    -0.74500
O505        O  0.33623125  0.50577570  0.67556523    -0.74350
O506        O  0.32505734  0.50464947  0.80106995    -0.80010
O507        O  0.32333315  0.57263021  0.69940954    -0.78210
O508        O  0.41657544  0.58469515  0.75059641    -1.14350
O509        O  0.41672029  0.66215535  0.67489335    -0.73540
C510        C  0.46801896  0.69061289  0.66983623     0.97170
C511        C  0.47110703  0.53153097  0.83143873     0.93570
Al512      Al  0.38052875  0.51250595  0.75065487     1.55560
O513        O  0.49552722  0.66515135  0.82652279    -0.78160
C514        C  0.30688343  0.52788220  0.67206762     0.97740
C515        C  0.47007278  0.53011020  0.67018400     0.92620
O516        O  0.49262693  0.58153885  0.67411051    -0.83480
C517        C  0.49795538  0.49906874  0.64254251    -0.03630
C518        C  0.50222170  0.50326530  0.85860327    -0.03630
C519        C  0.29650560  0.51346288  0.53683549    -0.27460
C520        C  0.49798417  0.49829835  0.56894558    -0.15540
C521        C  0.45063611  0.73245863  0.53106506     0.35090
C522        C  0.45399136  0.73495554  0.96398741    -0.26910
C523        C  0.50327618  0.50257451  0.93220014    -0.16150
C524        C  0.29971418  0.51447859  0.97077995     0.36180
N525        N  0.35041029  0.52402216  0.94632176    -0.90400
H526        H  0.33364345  0.52394143  0.56241310     0.17290
H527        H  0.41715733  0.72181738  0.93620225     0.17280
N528        N  0.39910759  0.71396016  0.56029776    -0.89430
H529        H  0.37100386  0.56162417  0.92498846     0.34660
H530        H  0.34393978  0.49192274  0.91595831     0.39760
H531        H  0.38436170  0.67362309  0.57192473     0.39380
H532        H  0.37092010  0.71294684  0.52726264     0.34270
O533        O  0.49671980  0.92553103  0.19821678    -0.82940
C534        C  0.30958480  0.78322771  0.32892125     0.96410
O535        O  0.33867967  0.83458826  0.32583133    -0.72060
O536        O  0.42870676  0.92794388  0.30243425    -0.75650
Al537      Al  0.38045904  0.87085606  0.25064880     1.48980
C538        C  0.47306503  0.94406285  0.33077941     0.91660
O539        O  0.49857864  0.82465623  0.30271414    -0.81870
O540        O  0.42705007  0.75265419  0.19917203    -0.75470
Al541      Al  0.48885869  0.87073524  0.25043263     1.90120
O542        O  0.41954630  0.75877095  0.32684914    -0.74500
O543        O  0.33623393  0.75577201  0.17556891    -0.74350
O544        O  0.32506378  0.75464826  0.30107340    -0.80010
O545        O  0.32334001  0.82263040  0.19940633    -0.78210
O546        O  0.41658085  0.83469502  0.25059564    -1.14350
O547        O  0.41672746  0.91215537  0.17489197    -0.73540
C548        C  0.46802604  0.94061388  0.16983613     0.97170
C549        C  0.47111429  0.78153355  0.33144018     0.93570
Al550      Al  0.38053458  0.76250582  0.25065699     1.55560
O551        O  0.49553064  0.91514988  0.32652215    -0.78160
C552        C  0.30688743  0.77787997  0.17206998     0.97740
C553        C  0.47007857  0.78011132  0.17018474     0.92620
O554        O  0.49263362  0.83154001  0.17411103    -0.83480
C555        C  0.49795993  0.74906896  0.14254352    -0.03630
C556        C  0.50222890  0.75326787  0.35860390    -0.03630
C557        C  0.29651826  0.76348576  0.03683972    -0.27460
C558        C  0.49799167  0.74830186  0.06894706    -0.15540
C559        C  0.45064071  0.98246327  0.03106551     0.35090
C560        C  0.45399486  0.98496464  0.46398810    -0.26910
C561        C  0.50328677  0.75258095  0.43220151    -0.16150
C562        C  0.29973193  0.76451207  0.47078524     0.36180
N563        N  0.35044661  0.77410423  0.44633423    -0.90400
H564        H  0.33365959  0.77397944  0.06241890     0.17290
H565        H  0.41716267  0.97183852  0.43620471     0.17280
N566        N  0.39911278  0.96396340  0.06030035    -0.89430
H567        H  0.37101403  0.81171193  0.42500495     0.34660
H568        H  0.34401130  0.74201802  0.41597321     0.39760
H569        H  0.38437610  0.92363123  0.07194311     0.39380
H570        H  0.37091827  0.96293026  0.02726205     0.34270
O571        O  0.49671979  0.92553103  0.69821678    -0.82940
C572        C  0.30958480  0.78322771  0.82892125     0.96410
O573        O  0.33867967  0.83458826  0.82583133    -0.72060
O574        O  0.42870675  0.92794388  0.80243425    -0.75650
Al575      Al  0.38045904  0.87085606  0.75064880     1.48980
C576        C  0.47306502  0.94406285  0.83077941     0.91660
O577        O  0.49857864  0.82465623  0.80271414    -0.81870
O578        O  0.42705006  0.75265419  0.69917203    -0.75470
Al579      Al  0.48885869  0.87073524  0.75043263     1.90120
O580        O  0.41954629  0.75877095  0.82684914    -0.74500
O581        O  0.33623393  0.75577201  0.67556891    -0.74350
O582        O  0.32506378  0.75464826  0.80107340    -0.80010
O583        O  0.32334001  0.82263039  0.69940633    -0.78210
O584        O  0.41658084  0.83469502  0.75059564    -1.14350
O585        O  0.41672746  0.91215537  0.67489197    -0.73540
C586        C  0.46802603  0.94061387  0.66983613     0.97170
C587        C  0.47111429  0.78153355  0.83144018     0.93570
Al588      Al  0.38053458  0.76250582  0.75065699     1.55560
O589        O  0.49553064  0.91514988  0.82652215    -0.78160
C590        C  0.30688743  0.77787997  0.67206998     0.97740
C591        C  0.47007857  0.78011132  0.67018474     0.92620
O592        O  0.49263362  0.83154000  0.67411103    -0.83480
C593        C  0.49795993  0.74906895  0.64254352    -0.03630
C594        C  0.50222890  0.75326787  0.85860390    -0.03630
C595        C  0.29651826  0.76348576  0.53683972    -0.27460
C596        C  0.49799166  0.74830185  0.56894706    -0.15540
C597        C  0.45064071  0.98246327  0.53106551     0.35090
C598        C  0.45399486  0.98496464  0.96398810    -0.26910
C599        C  0.50328677  0.75258095  0.93220151    -0.16150
C600        C  0.29973193  0.76451208  0.97078524     0.36180
N601        N  0.35044661  0.77410424  0.94633423    -0.90400
H602        H  0.33365958  0.77397944  0.56241890     0.17290
H603        H  0.41716267  0.97183852  0.93620471     0.17280
N604        N  0.39911278  0.96396340  0.56030034    -0.89430
H605        H  0.37101403  0.81171194  0.92500495     0.34660
H606        H  0.34401131  0.74201803  0.91597321     0.39760
H607        H  0.38437610  0.92363123  0.57194311     0.39380
H608        H  0.37091827  0.96293025  0.52726205     0.34270
O609        O  0.74671782  0.17553067  0.19821547    -0.82940
C610        C  0.55958782  0.03322514  0.32892330     0.96410
O611        O  0.58868508  0.08458571  0.32584035    -0.72060
O612        O  0.67870580  0.17794299  0.30243606    -0.75650
Al613      Al  0.63045981  0.12085405  0.25065333     1.48980
C614        C  0.72306395  0.19406340  0.33078104     0.91660
O615        O  0.74858305  0.07465677  0.30271624    -0.81870
O616        O  0.67705596  0.00265479  0.19917086    -0.75470
Al617      Al  0.73886125  0.12073630  0.25043319     1.90120
O618        O  0.66954937  0.00876989  0.32684712    -0.74500
O619        O  0.58624130  0.00577438  0.17556438    -0.74350
O620        O  0.57506568  0.00464698  0.30106926    -0.80010
O621        O  0.57334181  0.07262745  0.19941153    -0.78210
O622        O  0.66658403  0.08469490  0.25059629    -1.14350
O623        O  0.66672403  0.16215393  0.17489546    -0.73540
C624        C  0.71802223  0.19061301  0.16983701     0.97170
C625        C  0.72111743  0.03153218  0.33143959     0.93570
Al626      Al  0.63053899  0.01250584  0.25065459     1.55560
O627        O  0.74553131  0.16515171  0.32652332    -0.78160
C628        C  0.55689349  0.02788097  0.17206716     0.97740
C629        C  0.72008431  0.03011220  0.17018351     0.92620
O630        O  0.74263879  0.08154105  0.17411103    -0.83480
C631        C  0.74796607  0.99906934  0.14254175    -0.03630
C632        C  0.75223036  0.00326405  0.35860296    -0.03630
C633        C  0.54651607  0.01345768  0.03683392    -0.27460
C634        C  0.74799585  0.99829821  0.06894493    -0.15540
C635        C  0.70063491  0.23246107  0.03106455     0.35090
C636        C  0.70399004  0.23496103  0.46398702    -0.26910
C637        C  0.75328551  0.00257134  0.43219959    -0.16150
C638        C  0.54972192  0.01446719  0.47077769     0.36180
N639        N  0.60041053  0.02399089  0.44631668    -0.90400
H640        H  0.58365328  0.02393314  0.06241124     0.17290
H641        H  0.66715737  0.22183034  0.43620248     0.17280
N642        N  0.64910672  0.21396374  0.06029795    -0.89430
H643        H  0.62101405  0.06158978  0.42498028     0.34660
H644        H  0.59392562  0.99188476  0.41595426     0.39760
H645        H  0.63436924  0.17363256  0.07194593     0.39380
H646        H  0.62091282  0.21293019  0.02725785     0.34270
O647        O  0.74671782  0.17553067  0.69821547    -0.82940
C648        C  0.55958782  0.03322514  0.82892330     0.96410
O649        O  0.58868508  0.08458571  0.82584035    -0.72060
O650        O  0.67870579  0.17794299  0.80243606    -0.75650
Al651      Al  0.63045981  0.12085405  0.75065333     1.48980
C652        C  0.72306395  0.19406340  0.83078104     0.91660
O653        O  0.74858304  0.07465677  0.80271624    -0.81870
O654        O  0.67705596  0.00265479  0.69917086    -0.75470
Al655      Al  0.73886124  0.12073630  0.75043319     1.90120
O656        O  0.66954936  0.00876989  0.82684712    -0.74500
O657        O  0.58624130  0.00577437  0.67556438    -0.74350
O658        O  0.57506568  0.00464697  0.80106926    -0.80010
O659        O  0.57334181  0.07262745  0.69941152    -0.78210
O660        O  0.66658403  0.08469490  0.75059629    -1.14350
O661        O  0.66672402  0.16215392  0.67489545    -0.73540
C662        C  0.71802223  0.19061301  0.66983701     0.97170
C663        C  0.72111743  0.03153218  0.83143959     0.93570
Al664      Al  0.63053898  0.01250584  0.75065459     1.55560
O665        O  0.74553131  0.16515171  0.82652332    -0.78160
C666        C  0.55689348  0.02788097  0.67206716     0.97740
C667        C  0.72008430  0.03011219  0.67018351     0.92620
O668        O  0.74263879  0.08154105  0.67411103    -0.83480
C669        C  0.74796607  0.99906934  0.64254175    -0.03630
C670        C  0.75223036  0.00326405  0.85860296    -0.03630
C671        C  0.54651607  0.01345768  0.53683392    -0.27460
C672        C  0.74799585  0.99829821  0.56894493    -0.15540
C673        C  0.70063491  0.23246107  0.53106455     0.35090
C674        C  0.70399003  0.23496103  0.96398702    -0.26910
C675        C  0.75328551  0.00257134  0.93219958    -0.16150
C676        C  0.54972192  0.01446719  0.97077768     0.36180
N677        N  0.60041052  0.02399089  0.94631667    -0.90400
H678        H  0.58365327  0.02393314  0.56241124     0.17290
H679        H  0.66715737  0.22183035  0.93620249     0.17280
N680        N  0.64910672  0.21396373  0.56029794    -0.89430
H681        H  0.62101405  0.06158977  0.92498028     0.34660
H682        H  0.59392561  0.99188476  0.91595426     0.39760
H683        H  0.63436923  0.17363255  0.57194590     0.39380
H684        H  0.62091282  0.21293021  0.52725785     0.34270
O685        O  0.74671294  0.42553059  0.19821527    -0.82940
C686        C  0.55958332  0.28322676  0.32892197     0.96410
O687        O  0.58867883  0.33458722  0.32583666    -0.72060
O688        O  0.67870056  0.42794344  0.30243490    -0.75650
Al689      Al  0.63045447  0.37085472  0.25065156     1.48980
C690        C  0.72305855  0.44406349  0.33078037     0.91660
O691        O  0.74857652  0.32465653  0.30271627    -0.81870
O692        O  0.67704872  0.25265312  0.19916940    -0.75470
Al693      Al  0.73885524  0.37073579  0.25043296     1.90120
O694        O  0.66954370  0.25876760  0.32684529    -0.74500
O695        O  0.58623565  0.25577528  0.17556431    -0.74350
O696        O  0.57506192  0.25464861  0.30106953    -0.80010
O697        O  0.57333605  0.32262843  0.19941019    -0.78210
O698        O  0.66657826  0.33469480  0.25059577    -1.14350
O699        O  0.66671940  0.41215390  0.17489428    -0.73540
C700        C  0.71801761  0.44061308  0.16983670     0.97170
C701        C  0.72111185  0.28153135  0.33143866     0.93570
Al702      Al  0.63053315  0.26250560  0.25065380     1.55560
O703        O  0.74552566  0.41515162  0.32652274    -0.78160
C704        C  0.55688735  0.27788127  0.17206757     0.97740
C705        C  0.72007759  0.28011090  0.17018337     0.92620
O706        O  0.74263203  0.33153982  0.17411124    -0.83480
C707        C  0.74796002  0.24906867  0.14254224    -0.03630
C708        C  0.75222700  0.25326554  0.35860304    -0.03630
C709        C  0.54651308  0.26346856  0.03683594    -0.27460
C710        C  0.74799012  0.24829868  0.06894537    -0.15540
C711        C  0.70062916  0.48246380  0.03106521     0.35090
C712        C  0.70398422  0.48496426  0.46398759    -0.26910
C713        C  0.75328289  0.25257579  0.43219997    -0.16150
C714        C  0.54972291  0.26448686  0.47078057     0.36180
N715        N  0.60042370  0.27404270  0.44632393    -0.90400
H716        H  0.58365196  0.27395142  0.06241390     0.17290
H717        H  0.66715210  0.47183648  0.43620331     0.17280
N718        N  0.64910135  0.46396877  0.06029886    -0.89430
H719        H  0.62101051  0.31164597  0.42499119     0.34660
H720        H  0.59396206  0.24194666  0.41596099     0.39760
H721        H  0.63436551  0.42363959  0.07195477     0.39380
H722        H  0.62090565  0.46292866  0.02725677     0.34270
O723        O  0.74671293  0.42553059  0.69821527    -0.82940
C724        C  0.55958331  0.28322676  0.82892197     0.96410
O725        O  0.58867883  0.33458721  0.82583666    -0.72060
O726        O  0.67870055  0.42794344  0.80243490    -0.75650
Al727      Al  0.63045446  0.37085472  0.75065156     1.48980
C728        C  0.72305854  0.44406349  0.83078037     0.91660
O729        O  0.74857652  0.32465652  0.80271627    -0.81870
O730        O  0.67704871  0.25265312  0.69916940    -0.75470
Al731      Al  0.73885523  0.37073578  0.75043296     1.90120
O732        O  0.66954370  0.25876760  0.82684529    -0.74500
O733        O  0.58623564  0.25577528  0.67556431    -0.74350
O734        O  0.57506191  0.25464860  0.80106953    -0.80010
O735        O  0.57333605  0.32262842  0.69941019    -0.78210
O736        O  0.66657825  0.33469480  0.75059577    -1.14350
O737        O  0.66671939  0.41215389  0.67489428    -0.73540
C738        C  0.71801760  0.44061308  0.66983670     0.97170
C739        C  0.72111185  0.28153135  0.83143866     0.93570
Al740      Al  0.63053315  0.26250560  0.75065380     1.55560
O741        O  0.74552566  0.41515161  0.82652274    -0.78160
C742        C  0.55688734  0.27788127  0.67206757     0.97740
C743        C  0.72007758  0.28011090  0.67018337     0.92620
O744        O  0.74263203  0.33153981  0.67411124    -0.83480
C745        C  0.74796002  0.24906867  0.64254224    -0.03630
C746        C  0.75222699  0.25326553  0.85860304    -0.03630
C747        C  0.54651309  0.26346859  0.53683595    -0.27460
C748        C  0.74799012  0.24829869  0.56894538    -0.15540
C749        C  0.70062916  0.48246379  0.53106520     0.35090
C750        C  0.70398422  0.48496428  0.96398759    -0.26910
C751        C  0.75328289  0.25257579  0.93219997    -0.16150
C752        C  0.54972289  0.26448682  0.97078057     0.36180
N753        N  0.60042367  0.27404261  0.94632391    -0.90400
H754        H  0.58365198  0.27395147  0.56241391     0.17290
H755        H  0.66715210  0.47183652  0.93620332     0.17280
N756        N  0.64910135  0.46396873  0.56029886    -0.89430
H757        H  0.62101050  0.31164588  0.92499117     0.34660
H758        H  0.59396199  0.24194656  0.91596098     0.39760
H759        H  0.63436549  0.42363954  0.57195470     0.39380
H760        H  0.62090566  0.46292867  0.52725678     0.34270
O761        O  0.74671262  0.67552949  0.19821620    -0.82940
C762        C  0.55957913  0.53322761  0.32892294     0.96410
O763        O  0.58867566  0.58458837  0.32583813    -0.72060
O764        O  0.67870311  0.67794523  0.30243715    -0.75650
Al765      Al  0.63045356  0.62085645  0.25065221     1.48980
C766        C  0.72306209  0.69406482  0.33078147     0.91660
O767        O  0.74857215  0.57465470  0.30271441    -0.81870
O768        O  0.67704425  0.50265260  0.19917097    -0.75470
Al769      Al  0.73885289  0.62073467  0.25043263     1.90120
O770        O  0.66953888  0.50876834  0.32684681    -0.74500
O771        O  0.58623125  0.50577570  0.17556523    -0.74350
O772        O  0.57505735  0.50464947  0.30106995    -0.80010
O773        O  0.57333316  0.57263021  0.19940953    -0.78210
O774        O  0.66657544  0.58469515  0.25059641    -1.14350
O775        O  0.66672029  0.66215535  0.17489335    -0.73540
C776        C  0.71801897  0.69061289  0.16983623     0.97170
C777        C  0.72110703  0.53153098  0.33143873     0.93570
Al778      Al  0.63052875  0.51250595  0.25065487     1.55560
O779        O  0.74552722  0.66515135  0.32652279    -0.78160
C780        C  0.55688343  0.52788220  0.17206761     0.97740
C781        C  0.72007279  0.53011020  0.17018401     0.92620
O782        O  0.74262694  0.58153885  0.17411052    -0.83480
C783        C  0.74795538  0.49906874  0.14254251    -0.03630
C784        C  0.75222171  0.50326530  0.35860327    -0.03630
C785        C  0.54650559  0.51346286  0.03683548    -0.27460
C786        C  0.74798417  0.49829835  0.06894558    -0.15540
C787        C  0.70063612  0.73245863  0.03106506     0.35090
C788        C  0.70399136  0.73495555  0.46398741    -0.26910
C789        C  0.75327619  0.50257451  0.43220014    -0.16150
C790        C  0.54971420  0.51447862  0.47077996     0.36180
N791        N  0.60041032  0.52402224  0.44632178    -0.90400
H792        H  0.58364344  0.52394138  0.06241310     0.17290
H793        H  0.66715733  0.72181739  0.43620225     0.17280
N794        N  0.64910760  0.71396016  0.06029776    -0.89430
H795        H  0.62100387  0.56162425  0.42498848     0.34660
H796        H  0.59393985  0.49192283  0.41595833     0.39760
H797        H  0.63436170  0.67362309  0.07192473     0.39380
H798        H  0.62092010  0.71294685  0.02726265     0.34270
O799        O  0.74671261  0.67552948  0.69821620    -0.82940
C800        C  0.55957912  0.53322760  0.82892294     0.96410
O801        O  0.58867565  0.58458837  0.82583814    -0.72060
O802        O  0.67870310  0.67794523  0.80243715    -0.75650
Al803      Al  0.63045356  0.62085644  0.75065221     1.48980
C804        C  0.72306209  0.69406481  0.83078147     0.91660
O805        O  0.74857214  0.57465470  0.80271441    -0.81870
O806        O  0.67704424  0.50265260  0.69917097    -0.75470
Al807      Al  0.73885289  0.62073466  0.75043263     1.90120
O808        O  0.66953888  0.50876834  0.82684681    -0.74500
O809        O  0.58623125  0.50577570  0.67556523    -0.74350
O810        O  0.57505734  0.50464947  0.80106995    -0.80010
O811        O  0.57333315  0.57263021  0.69940954    -0.78210
O812        O  0.66657544  0.58469515  0.75059641    -1.14350
O813        O  0.66672029  0.66215535  0.67489335    -0.73540
C814        C  0.71801896  0.69061289  0.66983623     0.97170
C815        C  0.72110703  0.53153097  0.83143873     0.93570
Al816      Al  0.63052875  0.51250595  0.75065487     1.55560
O817        O  0.74552722  0.66515135  0.82652279    -0.78160
C818        C  0.55688343  0.52788220  0.67206762     0.97740
C819        C  0.72007278  0.53011020  0.67018400     0.92620
O820        O  0.74262693  0.58153885  0.67411051    -0.83480
C821        C  0.74795538  0.49906874  0.64254251    -0.03630
C822        C  0.75222170  0.50326530  0.85860327    -0.03630
C823        C  0.54650559  0.51346288  0.53683549    -0.27460
C824        C  0.74798418  0.49829836  0.56894559    -0.15540
C825        C  0.70063611  0.73245863  0.53106506     0.35090
C826        C  0.70399136  0.73495554  0.96398741    -0.26910
C827        C  0.75327618  0.50257451  0.93220014    -0.16150
C828        C  0.54971418  0.51447859  0.97077995     0.36180
N829        N  0.60041030  0.52402217  0.94632176    -0.90400
H830        H  0.58364345  0.52394142  0.56241310     0.17290
H831        H  0.66715733  0.72181738  0.93620225     0.17280
N832        N  0.64910760  0.71396017  0.56029776    -0.89430
H833        H  0.62100386  0.56162417  0.92498846     0.34660
H834        H  0.59393979  0.49192275  0.91595831     0.39760
H835        H  0.63436170  0.67362310  0.57192474     0.39380
H836        H  0.62092010  0.71294684  0.52726264     0.34270
O837        O  0.74671980  0.92553103  0.19821678    -0.82940
C838        C  0.55958480  0.78322771  0.32892125     0.96410
O839        O  0.58867967  0.83458826  0.32583133    -0.72060
O840        O  0.67870676  0.92794388  0.30243425    -0.75650
Al841      Al  0.63045904  0.87085606  0.25064880     1.48980
C842        C  0.72306503  0.94406285  0.33077941     0.91660
O843        O  0.74857864  0.82465623  0.30271414    -0.81870
O844        O  0.67705007  0.75265419  0.19917203    -0.75470
Al845      Al  0.73885869  0.87073524  0.25043263     1.90120
O846        O  0.66954630  0.75877095  0.32684914    -0.74500
O847        O  0.58623393  0.75577201  0.17556891    -0.74350
O848        O  0.57506378  0.75464826  0.30107340    -0.80010
O849        O  0.57334001  0.82263040  0.19940633    -0.78210
O850        O  0.66658085  0.83469502  0.25059564    -1.14350
O851        O  0.66672746  0.91215537  0.17489197    -0.73540
C852        C  0.71802604  0.94061388  0.16983613     0.97170
C853        C  0.72111429  0.78153355  0.33144018     0.93570
Al854      Al  0.63053458  0.76250582  0.25065699     1.55560
O855        O  0.74553064  0.91514988  0.32652215    -0.78160
C856        C  0.55688743  0.77787997  0.17206998     0.97740
C857        C  0.72007857  0.78011132  0.17018474     0.92620
O858        O  0.74263362  0.83154001  0.17411103    -0.83480
C859        C  0.74795993  0.74906896  0.14254352    -0.03630
C860        C  0.75222890  0.75326787  0.35860390    -0.03630
C861        C  0.54651826  0.76348576  0.03683972    -0.27460
C862        C  0.74799167  0.74830186  0.06894706    -0.15540
C863        C  0.70064071  0.98246327  0.03106551     0.35090
C864        C  0.70399486  0.98496464  0.46398810    -0.26910
C865        C  0.75328677  0.75258095  0.43220151    -0.16150
C866        C  0.54973193  0.76451207  0.47078524     0.36180
N867        N  0.60044661  0.77410422  0.44633423    -0.90400
H868        H  0.58365959  0.77397945  0.06241890     0.17290
H869        H  0.66716267  0.97183852  0.43620471     0.17280
N870        N  0.64911278  0.96396339  0.06030035    -0.89430
H871        H  0.62101403  0.81171192  0.42500495     0.34660
H872        H  0.59401130  0.74201801  0.41597321     0.39760
H873        H  0.63437610  0.92363123  0.07194311     0.39380
H874        H  0.62091827  0.96293025  0.02726206     0.34270
O875        O  0.74671979  0.92553103  0.69821678    -0.82940
C876        C  0.55958479  0.78322771  0.82892125     0.96410
O877        O  0.58867967  0.83458826  0.82583133    -0.72060
O878        O  0.67870675  0.92794388  0.80243425    -0.75650
Al879      Al  0.63045904  0.87085606  0.75064880     1.48980
C880        C  0.72306502  0.94406285  0.83077941     0.91660
O881        O  0.74857864  0.82465623  0.80271414    -0.81870
O882        O  0.67705006  0.75265419  0.69917203    -0.75470
Al883      Al  0.73885869  0.87073524  0.75043263     1.90120
O884        O  0.66954629  0.75877095  0.82684914    -0.74500
O885        O  0.58623393  0.75577201  0.67556891    -0.74350
O886        O  0.57506378  0.75464826  0.80107340    -0.80010
O887        O  0.57334001  0.82263039  0.69940633    -0.78210
O888        O  0.66658084  0.83469502  0.75059564    -1.14350
O889        O  0.66672746  0.91215537  0.67489197    -0.73540
C890        C  0.71802603  0.94061387  0.66983613     0.97170
C891        C  0.72111429  0.78153355  0.83144018     0.93570
Al892      Al  0.63053458  0.76250582  0.75065699     1.55560
O893        O  0.74553064  0.91514988  0.82652215    -0.78160
C894        C  0.55688743  0.77787997  0.67206998     0.97740
C895        C  0.72007857  0.78011132  0.67018474     0.92620
O896        O  0.74263362  0.83154000  0.67411103    -0.83480
C897        C  0.74795993  0.74906895  0.64254352    -0.03630
C898        C  0.75222890  0.75326787  0.85860390    -0.03630
C899        C  0.54651826  0.76348576  0.53683972    -0.27460
C900        C  0.74799166  0.74830185  0.56894706    -0.15540
C901        C  0.70064071  0.98246327  0.53106551     0.35090
C902        C  0.70399486  0.98496464  0.96398810    -0.26910
C903        C  0.75328677  0.75258095  0.93220151    -0.16150
C904        C  0.54973193  0.76451208  0.97078524     0.36180
N905        N  0.60044661  0.77410424  0.94633423    -0.90400
H906        H  0.58365958  0.77397943  0.56241890     0.17290
H907        H  0.66716267  0.97183852  0.93620471     0.17280
N908        N  0.64911278  0.96396340  0.56030034    -0.89430
H909        H  0.62101403  0.81171194  0.92500495     0.34660
H910        H  0.59401131  0.74201803  0.91597321     0.39760
H911        H  0.63437610  0.92363123  0.57194311     0.39380
H912        H  0.62091827  0.96293025  0.52726205     0.34270
O913        O  0.99671782  0.17553067  0.19821547    -0.82940
C914        C  0.80958782  0.03322514  0.32892330     0.96410
O915        O  0.83868508  0.08458571  0.32584035    -0.72060
O916        O  0.92870580  0.17794299  0.30243606    -0.75650
Al917      Al  0.88045981  0.12085405  0.25065334     1.48980
C918        C  0.97306395  0.19406340  0.33078104     0.91660
O919        O  0.99858305  0.07465677  0.30271624    -0.81870
O920        O  0.92705596  0.00265479  0.19917087    -0.75470
Al921      Al  0.98886125  0.12073630  0.25043319     1.90120
O922        O  0.91954937  0.00876989  0.32684712    -0.74500
O923        O  0.83624130  0.00577438  0.17556438    -0.74350
O924        O  0.82506568  0.00464698  0.30106926    -0.80010
O925        O  0.82334181  0.07262745  0.19941153    -0.78210
O926        O  0.91658403  0.08469490  0.25059629    -1.14350
O927        O  0.91672403  0.16215393  0.17489546    -0.73540
C928        C  0.96802223  0.19061301  0.16983701     0.97170
C929        C  0.97111743  0.03153218  0.33143959     0.93570
Al930      Al  0.88053899  0.01250584  0.25065459     1.55560
O931        O  0.99553131  0.16515171  0.32652332    -0.78160
C932        C  0.80689349  0.02788097  0.17206716     0.97740
C933        C  0.97008431  0.03011220  0.17018351     0.92620
O934        O  0.99263879  0.08154105  0.17411103    -0.83480
C935        C  0.99796607  0.99906934  0.14254176    -0.03630
C936        C  0.00223036  0.00326405  0.35860296    -0.03630
C937        C  0.79651607  0.01345768  0.03683392    -0.27460
C938        C  0.99799585  0.99829821  0.06894493    -0.15540
C939        C  0.95063491  0.23246107  0.03106455     0.35090
C940        C  0.95399004  0.23496103  0.46398702    -0.26910
C941        C  0.00328551  0.00257134  0.43219959    -0.16150
C942        C  0.79972192  0.01446719  0.47077769     0.36180
N943        N  0.85041052  0.02399089  0.44631668    -0.90400
H944        H  0.83365328  0.02393315  0.06241124     0.17290
H945        H  0.91715737  0.22183033  0.43620248     0.17280
N946        N  0.89910672  0.21396374  0.06029795    -0.89430
H947        H  0.87101405  0.06158977  0.42498028     0.34660
H948        H  0.84392561  0.99188476  0.41595426     0.39760
H949        H  0.88436924  0.17363256  0.07194593     0.39380
H950        H  0.87091282  0.21293019  0.02725785     0.34270
O951        O  0.99671782  0.17553067  0.69821547    -0.82940
C952        C  0.80958782  0.03322514  0.82892330     0.96410
O953        O  0.83868508  0.08458571  0.82584034    -0.72060
O954        O  0.92870579  0.17794299  0.80243606    -0.75650
Al955      Al  0.88045981  0.12085405  0.75065333     1.48980
C956        C  0.97306395  0.19406340  0.83078104     0.91660
O957        O  0.99858304  0.07465677  0.80271624    -0.81870
O958        O  0.92705596  0.00265479  0.69917086    -0.75470
Al959      Al  0.98886124  0.12073630  0.75043319     1.90120
O960        O  0.91954936  0.00876989  0.82684712    -0.74500
O961        O  0.83624130  0.00577437  0.67556438    -0.74350
O962        O  0.82506568  0.00464697  0.80106926    -0.80010
O963        O  0.82334181  0.07262745  0.69941152    -0.78210
O964        O  0.91658403  0.08469490  0.75059629    -1.14350
O965        O  0.91672402  0.16215392  0.67489545    -0.73540
C966        C  0.96802223  0.19061301  0.66983701     0.97170
C967        C  0.97111743  0.03153218  0.83143959     0.93570
Al968      Al  0.88053898  0.01250584  0.75065459     1.55560
O969        O  0.99553131  0.16515171  0.82652332    -0.78160
C970        C  0.80689348  0.02788097  0.67206716     0.97740
C971        C  0.97008430  0.03011219  0.67018351     0.92620
O972        O  0.99263879  0.08154105  0.67411103    -0.83480
C973        C  0.99796607  0.99906934  0.64254175    -0.03630
C974        C  0.00223036  0.00326405  0.85860296    -0.03630
C975        C  0.79651607  0.01345768  0.53683392    -0.27460
C976        C  0.99799585  0.99829821  0.56894493    -0.15540
C977        C  0.95063491  0.23246107  0.53106455     0.35090
C978        C  0.95399003  0.23496103  0.96398702    -0.26910
C979        C  0.00328551  0.00257134  0.93219959    -0.16150
C980        C  0.79972192  0.01446719  0.97077768     0.36180
N981        N  0.85041052  0.02399089  0.94631667    -0.90400
H982        H  0.83365327  0.02393314  0.56241124     0.17290
H983        H  0.91715737  0.22183035  0.93620249     0.17280
N984        N  0.89910672  0.21396372  0.56029794    -0.89430
H985        H  0.87101405  0.06158978  0.92498028     0.34660
H986        H  0.84392561  0.99188476  0.91595426     0.39760
H987        H  0.88436923  0.17363254  0.57194590     0.39380
H988        H  0.87091282  0.21293021  0.52725785     0.34270
O989        O  0.99671294  0.42553059  0.19821527    -0.82940
C990        C  0.80958332  0.28322676  0.32892197     0.96410
O991        O  0.83867883  0.33458722  0.32583666    -0.72060
O992        O  0.92870056  0.42794344  0.30243490    -0.75650
Al993      Al  0.88045447  0.37085472  0.25065156     1.48980
C994        C  0.97305855  0.44406349  0.33078037     0.91660
O995        O  0.99857652  0.32465653  0.30271627    -0.81870
O996        O  0.92704872  0.25265312  0.19916940    -0.75470
Al997      Al  0.98885524  0.37073579  0.25043296     1.90120
O998        O  0.91954370  0.25876760  0.32684529    -0.74500
O999        O  0.83623565  0.25577528  0.17556431    -0.74350
O1000       O  0.82506192  0.25464861  0.30106953    -0.80010
O1001       O  0.82333605  0.32262843  0.19941019    -0.78210
O1002       O  0.91657826  0.33469480  0.25059577    -1.14350
O1003       O  0.91671940  0.41215390  0.17489428    -0.73540
C1004       C  0.96801761  0.44061308  0.16983670     0.97170
C1005       C  0.97111185  0.28153135  0.33143866     0.93570
Al1006     Al  0.88053316  0.26250560  0.25065380     1.55560
O1007       O  0.99552566  0.41515162  0.32652274    -0.78160
C1008       C  0.80688735  0.27788127  0.17206757     0.97740
C1009       C  0.97007759  0.28011090  0.17018337     0.92620
O1010       O  0.99263203  0.33153982  0.17411124    -0.83480
C1011       C  0.99796002  0.24906867  0.14254224    -0.03630
C1012       C  0.00222700  0.25326554  0.35860304    -0.03630
C1013       C  0.79651308  0.26346856  0.03683594    -0.27460
C1014       C  0.99799012  0.24829868  0.06894537    -0.15540
C1015       C  0.95062916  0.48246380  0.03106521     0.35090
C1016       C  0.95398422  0.48496426  0.46398759    -0.26910
C1017       C  0.00328289  0.25257579  0.43219997    -0.16150
C1018       C  0.79972290  0.26448685  0.47078057     0.36180
N1019       N  0.85042370  0.27404268  0.44632393    -0.90400
H1020       H  0.83365196  0.27395142  0.06241390     0.17290
H1021       H  0.91715210  0.47183649  0.43620331     0.17280
N1022       N  0.89910135  0.46396877  0.06029886    -0.89430
H1023       H  0.87101051  0.31164596  0.42499119     0.34660
H1024       H  0.84396205  0.24194665  0.41596099     0.39760
H1025       H  0.88436550  0.42363959  0.07195477     0.39380
H1026       H  0.87090565  0.46292866  0.02725677     0.34270
O1027       O  0.99671293  0.42553059  0.69821527    -0.82940
C1028       C  0.80958331  0.28322676  0.82892197     0.96410
O1029       O  0.83867883  0.33458721  0.82583666    -0.72060
O1030       O  0.92870055  0.42794344  0.80243490    -0.75650
Al1031     Al  0.88045446  0.37085472  0.75065156     1.48980
C1032       C  0.97305854  0.44406349  0.83078037     0.91660
O1033       O  0.99857652  0.32465652  0.80271627    -0.81870
O1034       O  0.92704871  0.25265312  0.69916940    -0.75470
Al1035     Al  0.98885523  0.37073578  0.75043296     1.90120
O1036       O  0.91954370  0.25876760  0.82684529    -0.74500
O1037       O  0.83623564  0.25577528  0.67556431    -0.74350
O1038       O  0.82506191  0.25464860  0.80106953    -0.80010
O1039       O  0.82333605  0.32262842  0.69941019    -0.78210
O1040       O  0.91657825  0.33469480  0.75059577    -1.14350
O1041       O  0.91671939  0.41215389  0.67489428    -0.73540
C1042       C  0.96801760  0.44061308  0.66983670     0.97170
C1043       C  0.97111185  0.28153135  0.83143866     0.93570
Al1044     Al  0.88053315  0.26250560  0.75065380     1.55560
O1045       O  0.99552566  0.41515161  0.82652274    -0.78160
C1046       C  0.80688734  0.27788127  0.67206757     0.97740
C1047       C  0.97007758  0.28011090  0.67018337     0.92620
O1048       O  0.99263203  0.33153981  0.67411124    -0.83480
C1049       C  0.99796002  0.24906867  0.64254224    -0.03630
C1050       C  0.00222699  0.25326553  0.85860304    -0.03630
C1051       C  0.79651308  0.26346859  0.53683595    -0.27460
C1052       C  0.99799012  0.24829869  0.56894538    -0.15540
C1053       C  0.95062916  0.48246379  0.53106520     0.35090
C1054       C  0.95398422  0.48496428  0.96398759    -0.26910
C1055       C  0.00328289  0.25257579  0.93219997    -0.16150
C1056       C  0.79972289  0.26448682  0.97078057     0.36180
N1057       N  0.85042367  0.27404261  0.94632391    -0.90400
H1058       H  0.83365197  0.27395146  0.56241391     0.17290
H1059       H  0.91715210  0.47183652  0.93620332     0.17280
N1060       N  0.89910135  0.46396874  0.56029886    -0.89430
H1061       H  0.87101050  0.31164588  0.92499117     0.34660
H1062       H  0.84396199  0.24194656  0.91596098     0.39760
H1063       H  0.88436549  0.42363955  0.57195471     0.39380
H1064       H  0.87090566  0.46292867  0.52725678     0.34270
O1065       O  0.99671262  0.67552949  0.19821620    -0.82940
C1066       C  0.80957913  0.53322761  0.32892294     0.96410
O1067       O  0.83867566  0.58458837  0.32583813    -0.72060
O1068       O  0.92870311  0.67794523  0.30243715    -0.75650
Al1069     Al  0.88045356  0.62085645  0.25065221     1.48980
C1070       C  0.97306209  0.69406482  0.33078147     0.91660
O1071       O  0.99857215  0.57465470  0.30271441    -0.81870
O1072       O  0.92704424  0.50265260  0.19917097    -0.75470
Al1073     Al  0.98885289  0.62073467  0.25043263     1.90120
O1074       O  0.91953888  0.50876834  0.32684681    -0.74500
O1075       O  0.83623125  0.50577570  0.17556523    -0.74350
O1076       O  0.82505735  0.50464947  0.30106995    -0.80010
O1077       O  0.82333316  0.57263021  0.19940953    -0.78210
O1078       O  0.91657544  0.58469515  0.25059641    -1.14350
O1079       O  0.91672029  0.66215535  0.17489335    -0.73540
C1080       C  0.96801897  0.69061289  0.16983623     0.97170
C1081       C  0.97110703  0.53153098  0.33143873     0.93570
Al1082     Al  0.88052875  0.51250595  0.25065487     1.55560
O1083       O  0.99552722  0.66515135  0.32652279    -0.78160
C1084       C  0.80688343  0.52788220  0.17206761     0.97740
C1085       C  0.97007279  0.53011020  0.17018401     0.92620
O1086       O  0.99262694  0.58153885  0.17411052    -0.83480
C1087       C  0.99795538  0.49906874  0.14254251    -0.03630
C1088       C  0.00222170  0.50326530  0.35860327    -0.03630
C1089       C  0.79650559  0.51346286  0.03683548    -0.27460
C1090       C  0.99798417  0.49829835  0.06894558    -0.15540
C1091       C  0.95063612  0.73245863  0.03106506     0.35090
C1092       C  0.95399136  0.73495555  0.46398741    -0.26910
C1093       C  0.00327619  0.50257451  0.43220014    -0.16150
C1094       C  0.79971420  0.51447864  0.47077996     0.36180
N1095       N  0.85041033  0.52402227  0.44632178    -0.90400
H1096       H  0.83364344  0.52394138  0.06241310     0.17290
H1097       H  0.91715733  0.72181739  0.43620225     0.17280
N1098       N  0.89910760  0.71396017  0.06029776    -0.89430
H1099       H  0.87100387  0.56162428  0.42498848     0.34660
H1100       H  0.84393987  0.49192286  0.41595834     0.39760
H1101       H  0.88436170  0.67362310  0.07192473     0.39380
H1102       H  0.87092010  0.71294685  0.02726265     0.34270
O1103       O  0.99671261  0.67552948  0.69821620    -0.82940
C1104       C  0.80957912  0.53322760  0.82892294     0.96410
O1105       O  0.83867565  0.58458837  0.82583814    -0.72060
O1106       O  0.92870310  0.67794523  0.80243715    -0.75650
Al1107     Al  0.88045356  0.62085644  0.75065221     1.48980
C1108       C  0.97306209  0.69406481  0.83078147     0.91660
O1109       O  0.99857214  0.57465470  0.80271441    -0.81870
O1110       O  0.92704424  0.50265260  0.69917097    -0.75470
Al1111     Al  0.98885289  0.62073466  0.75043263     1.90120
O1112       O  0.91953888  0.50876834  0.82684681    -0.74500
O1113       O  0.83623125  0.50577570  0.67556523    -0.74350
O1114       O  0.82505734  0.50464947  0.80106995    -0.80010
O1115       O  0.82333315  0.57263021  0.69940954    -0.78210
O1116       O  0.91657544  0.58469515  0.75059641    -1.14350
O1117       O  0.91672029  0.66215535  0.67489335    -0.73540
C1118       C  0.96801896  0.69061289  0.66983623     0.97170
C1119       C  0.97110703  0.53153097  0.83143873     0.93570
Al1120     Al  0.88052875  0.51250595  0.75065487     1.55560
O1121       O  0.99552722  0.66515135  0.82652279    -0.78160
C1122       C  0.80688343  0.52788220  0.67206762     0.97740
C1123       C  0.97007278  0.53011020  0.67018400     0.92620
O1124       O  0.99262693  0.58153885  0.67411051    -0.83480
C1125       C  0.99795538  0.49906874  0.64254251    -0.03630
C1126       C  0.00222170  0.50326530  0.85860327    -0.03630
C1127       C  0.79650560  0.51346289  0.53683549    -0.27460
C1128       C  0.99798417  0.49829836  0.56894558    -0.15540
C1129       C  0.95063611  0.73245863  0.53106506     0.35090
C1130       C  0.95399136  0.73495555  0.96398741    -0.26910
C1131       C  0.00327618  0.50257451  0.93220014    -0.16150
C1132       C  0.79971418  0.51447860  0.97077995     0.36180
N1133       N  0.85041030  0.52402217  0.94632176    -0.90400
H1134       H  0.83364346  0.52394144  0.56241311     0.17290
H1135       H  0.91715733  0.72181739  0.93620225     0.17280
N1136       N  0.89910760  0.71396017  0.56029776    -0.89430
H1137       H  0.87100386  0.56162418  0.92498846     0.34660
H1138       H  0.84393979  0.49192276  0.91595832     0.39760
H1139       H  0.88436170  0.67362310  0.57192474     0.39380
H1140       H  0.87092010  0.71294684  0.52726264     0.34270
O1141       O  0.99671980  0.92553103  0.19821678    -0.82940
C1142       C  0.80958480  0.78322771  0.32892125     0.96410
O1143       O  0.83867967  0.83458826  0.32583133    -0.72060
O1144       O  0.92870676  0.92794388  0.30243425    -0.75650
Al1145     Al  0.88045904  0.87085606  0.25064880     1.48980
C1146       C  0.97306503  0.94406285  0.33077941     0.91660
O1147       O  0.99857864  0.82465623  0.30271414    -0.81870
O1148       O  0.92705007  0.75265419  0.19917203    -0.75470
Al1149     Al  0.98885869  0.87073524  0.25043263     1.90120
O1150       O  0.91954630  0.75877095  0.32684914    -0.74500
O1151       O  0.83623393  0.75577201  0.17556891    -0.74350
O1152       O  0.82506378  0.75464826  0.30107340    -0.80010
O1153       O  0.82334001  0.82263040  0.19940633    -0.78210
O1154       O  0.91658085  0.83469502  0.25059564    -1.14350
O1155       O  0.91672746  0.91215537  0.17489197    -0.73540
C1156       C  0.96802604  0.94061388  0.16983613     0.97170
C1157       C  0.97111429  0.78153355  0.33144018     0.93570
Al1158     Al  0.88053458  0.76250582  0.25065699     1.55560
O1159       O  0.99553064  0.91514988  0.32652215    -0.78160
C1160       C  0.80688743  0.77787997  0.17206998     0.97740
C1161       C  0.97007857  0.78011132  0.17018474     0.92620
O1162       O  0.99263362  0.83154001  0.17411103    -0.83480
C1163       C  0.99795993  0.74906896  0.14254352    -0.03630
C1164       C  0.00222890  0.75326787  0.35860390    -0.03630
C1165       C  0.79651826  0.76348576  0.03683972    -0.27460
C1166       C  0.99799167  0.74830186  0.06894706    -0.15540
C1167       C  0.95064071  0.98246327  0.03106551     0.35090
C1168       C  0.95399486  0.98496463  0.46398810    -0.26910
C1169       C  0.00328677  0.75258095  0.43220151    -0.16150
C1170       C  0.79973193  0.76451206  0.47078524     0.36180
N1171       N  0.85044660  0.77410422  0.44633423    -0.90400
H1172       H  0.83365959  0.77397944  0.06241890     0.17290
H1173       H  0.91716267  0.97183851  0.43620471     0.17280
N1174       N  0.89911278  0.96396340  0.06030035    -0.89430
H1175       H  0.87101403  0.81171191  0.42500495     0.34660
H1176       H  0.84401129  0.74201800  0.41597320     0.39760
H1177       H  0.88437610  0.92363123  0.07194311     0.39380
H1178       H  0.87091827  0.96293025  0.02726205     0.34270
O1179       O  0.99671979  0.92553103  0.69821678    -0.82940
C1180       C  0.80958480  0.78322771  0.82892125     0.96410
O1181       O  0.83867967  0.83458826  0.82583133    -0.72060
O1182       O  0.92870675  0.92794388  0.80243425    -0.75650
Al1183     Al  0.88045904  0.87085606  0.75064880     1.48980
C1184       C  0.97306502  0.94406285  0.83077941     0.91660
O1185       O  0.99857864  0.82465623  0.80271414    -0.81870
O1186       O  0.92705006  0.75265419  0.69917203    -0.75470
Al1187     Al  0.98885869  0.87073524  0.75043263     1.90120
O1188       O  0.91954629  0.75877095  0.82684914    -0.74500
O1189       O  0.83623393  0.75577201  0.67556891    -0.74350
O1190       O  0.82506378  0.75464826  0.80107340    -0.80010
O1191       O  0.82334001  0.82263039  0.69940633    -0.78210
O1192       O  0.91658084  0.83469502  0.75059564    -1.14350
O1193       O  0.91672746  0.91215537  0.67489197    -0.73540
C1194       C  0.96802603  0.94061387  0.66983613     0.97170
C1195       C  0.97111429  0.78153355  0.83144018     0.93570
Al1196     Al  0.88053458  0.76250582  0.75065699     1.55560
O1197       O  0.99553064  0.91514988  0.82652215    -0.78160
C1198       C  0.80688743  0.77787997  0.67206998     0.97740
C1199       C  0.97007857  0.78011132  0.67018474     0.92620
O1200       O  0.99263362  0.83154000  0.67411103    -0.83480
C1201       C  0.99795993  0.74906895  0.64254352    -0.03630
C1202       C  0.00222890  0.75326787  0.85860390    -0.03630
C1203       C  0.79651826  0.76348575  0.53683972    -0.27460
C1204       C  0.99799166  0.74830185  0.56894706    -0.15540
C1205       C  0.95064071  0.98246327  0.53106551     0.35090
C1206       C  0.95399486  0.98496464  0.96398810    -0.26910
C1207       C  0.00328677  0.75258095  0.93220151    -0.16150
C1208       C  0.79973193  0.76451207  0.97078524     0.36180
N1209       N  0.85044661  0.77410424  0.94633423    -0.90400
H1210       H  0.83365958  0.77397943  0.56241890     0.17290
H1211       H  0.91716267  0.97183852  0.93620471     0.17280
N1212       N  0.89911278  0.96396339  0.56030034    -0.89430
H1213       H  0.87101403  0.81171194  0.92500495     0.34660
H1214       H  0.84401131  0.74201802  0.91597321     0.39760
H1215       H  0.88437610  0.92363122  0.57194310     0.39380
H1216       H  0.87091827  0.96293025  0.52726205     0.34270
loop_ 
_geom_bond_atom_site_label_1 
_geom_bond_atom_site_label_2 
_geom_bond_distance 
_geom_bond_site_symmetry_2 
_ccdc_geom_bond_type 
O1           C16   1.248       .  A
O1           Al9   1.846       .  S
C2           O12   1.246       .  A
C2            O3   1.276       .  A
C2          C936   1.558       .  S
O3           Al5   1.959       .  S
O4            C6   1.247       .  A
O4           Al5   1.843       .  S
Al5          O13   1.836       .  S
Al5          O15   1.965       .  S
Al5          O14   1.785       .  S
C6           O19   1.275       .  A
C6          C100   1.562       .  S
O7           C17   1.249       .  A
O7           Al9   1.848       .  S
O8           C21   1.247       .  A
O8          Al18   1.843       .  S
Al9          O22   1.975       .  S
Al9          O19   1.971       .  S
Al9          O14   1.782       .  S
O10          C17   1.276       .  A
O10         Al18   1.972       .  S
O11          C20   1.277       .  A
O11         Al18   1.954       .  S
O12         Al18   1.832       .  S
O13          C20   1.246       .  A
O14         Al18   1.784       .  S
O15          C16   1.274       .  A
C16          C99   1.567       .  S
C17          C24   1.575       .  S
C20         C935   1.567   1_445  S
C21          O22   1.275       .  A
C21          C23   1.565   1_545  S
C23          C26   1.545       .  S
C23         C244   1.567       .  S
C23         C324   1.567   1_565  S
C24          C29   1.546       .  S
C24         C306   1.558       .  S
C24         C234   1.562   1_545  S
C25          H32   1.078       .  S
C25         C938   1.408   1_445  A
C25          C68   1.391   1_554  A
C26         C329   1.408   1_565  A
C26         C255   1.418       .  A
C27         C102   1.418       .  A
C27          C66   1.413   1_554  A
C27          N34   1.436       .  S
C28          H33   1.080       .  S
C28          C65   1.413       .  A
C28         C105   1.412       .  A
C29         C256   1.412   1_545  A
C29         C334   1.428       .  A
C30          C63   1.391       .  A
C30         C941   1.428       .  A
C30          N31   1.432       .  S
N31          H35   1.043       .  S
N31          H36   1.044   1_545  S
N34          H37   1.043       .  S
N34          H38   1.044       .  S
O39          C54   1.248       .  A
O39         Al47   1.846       .  S
C40          O50   1.246       .  A
C40          O41   1.276       .  A
C40         C974   1.558       .  S
O41         Al43   1.959       .  S
O42          C44   1.247       .  A
O42         Al43   1.843       .  S
Al43         O51   1.836       .  S
Al43         O53   1.965       .  S
Al43         O52   1.785       .  S
C44          O57   1.275       .  A
C44         C138   1.562       .  S
O45          C55   1.249       .  A
O45         Al47   1.848       .  S
O46          C59   1.247       .  A
O46         Al56   1.843       .  S
Al47         O60   1.975       .  S
Al47         O57   1.971       .  S
Al47         O52   1.782       .  S
O48          C55   1.276       .  A
O48         Al56   1.972       .  S
O49          C58   1.277       .  A
O49         Al56   1.954       .  S
O50         Al56   1.832       .  S
O51          C58   1.246       .  A
O52         Al56   1.784       .  S
O53          C54   1.274       .  A
C54         C137   1.567       .  S
C55          C62   1.575       .  S
C58         C973   1.567   1_445  S
C59          O60   1.275       .  A
C59          C61   1.565   1_545  S
C61         C282   1.567       .  S
C61         C362   1.567   1_565  S
C61          C64   1.545       .  S
C62         C344   1.558       .  S
C62         C272   1.562   1_545  S
C62          C67   1.546       .  S
C63          H70   1.078       .  S
C63         C976   1.408   1_445  A
C64         C367   1.408   1_565  A
C64         C293   1.418       .  A
C65         C140   1.418       .  A
C65          N72   1.436       .  S
C66          H71   1.080       .  S
C66         C143   1.412       .  A
C67         C294   1.412   1_545  A
C67         C372   1.428       .  A
C68         C979   1.428       .  A
C68          N69   1.432       .  S
N69          H73   1.043       .  S
N69          H74   1.044   1_545  S
N72          H75   1.043       .  S
N72          H76   1.044       .  S
O77          C92   1.248       .  A
O77         Al85   1.846       .  S
C78          O88   1.246       .  A
C78          O79   1.276       .  A
C78        C1012   1.558       .  S
O79         Al81   1.959       .  S
O80          C82   1.247       .  A
O80         Al81   1.843       .  S
Al81         O89   1.836       .  S
Al81         O91   1.965       .  S
Al81         O90   1.785       .  S
C82          O95   1.275       .  A
C82         C176   1.562       .  S
O83          C93   1.249       .  A
O83         Al85   1.848       .  S
O84          C97   1.247       .  A
O84         Al94   1.843       .  S
Al85         O98   1.975       .  S
Al85         O95   1.971       .  S
Al85         O90   1.782       .  S
O86          C93   1.276       .  A
O86         Al94   1.972       .  S
O87          C96   1.277       .  A
O87         Al94   1.954       .  S
O88         Al94   1.832       .  S
O89          C96   1.246       .  A
O90         Al94   1.784       .  S
O91          C92   1.274       .  A
C92         C175   1.567       .  S
C93         C100   1.575       .  S
C96        C1011   1.567   1_455  S
C97          O98   1.275       .  A
C97          C99   1.565       .  S
C99         C400   1.567       .  S
C99         C102   1.545       .  S
C100        C382   1.558       .  S
C100        C105   1.546       .  S
C101        H108   1.078       .  S
C101       C1014   1.408   1_455  A
C101        C144   1.391   1_554  A
C102        C405   1.408       .  A
C103        C178   1.418       .  A
C103        C142   1.413   1_554  A
C103        N110   1.436       .  S
C104        H109   1.080       .  S
C104        C141   1.413       .  A
C104        C181   1.412       .  A
C105        C410   1.428       .  A
C106        C139   1.391       .  A
C106       C1017   1.428       .  A
C106        N107   1.432       .  S
N107        H111   1.043       .  S
N107        H112   1.044       .  S
N110        H113   1.043       .  S
N110        H114   1.044       .  S
O115        C130   1.248       .  A
O115       Al123   1.846       .  S
C116        O126   1.246       .  A
C116        O117   1.276       .  A
C116       C1050   1.558       .  S
O117       Al119   1.959       .  S
O118        C120   1.247       .  A
O118       Al119   1.843       .  S
Al119       O127   1.836       .  S
Al119       O129   1.965       .  S
Al119       O128   1.785       .  S
C120        O133   1.275       .  A
C120        C214   1.562       .  S
O121        C131   1.249       .  A
O121       Al123   1.848       .  S
O122        C135   1.247       .  A
O122       Al132   1.843       .  S
Al123       O136   1.975       .  S
Al123       O133   1.971       .  S
Al123       O128   1.782       .  S
O124        C131   1.276       .  A
O124       Al132   1.972       .  S
O125        C134   1.277       .  A
O125       Al132   1.954       .  S
O126       Al132   1.832       .  S
O127        C134   1.246       .  A
O128       Al132   1.784       .  S
O129        C130   1.274       .  A
C130        C213   1.567       .  S
C131        C138   1.575       .  S
C134       C1049   1.567   1_455  S
C135        O136   1.275       .  A
C135        C137   1.565       .  S
C137        C438   1.567       .  S
C137        C140   1.545       .  S
C138        C420   1.558       .  S
C138        C143   1.546       .  S
C139        H146   1.078       .  S
C139       C1052   1.408   1_455  A
C140        C443   1.408       .  A
C141        C216   1.418       .  A
C141        N148   1.436       .  S
C142        H147   1.080       .  S
C142        C219   1.412       .  A
C143        C448   1.428       .  A
C144       C1055   1.428       .  A
C144        N145   1.432       .  S
N145        H149   1.043       .  S
N145        H150   1.044       .  S
N148        H151   1.043       .  S
N148        H152   1.044       .  S
O153        C168   1.248       .  A
O153       Al161   1.846       .  S
C154        O164   1.246       .  A
C154        O155   1.276       .  A
C154       C1088   1.558       .  S
O155       Al157   1.959       .  S
O156        C158   1.247       .  A
O156       Al157   1.843       .  S
Al157       O165   1.837       .  S
Al157       O167   1.965       .  S
Al157       O166   1.785       .  S
C158        O171   1.275       .  A
C158        C252   1.562       .  S
O159        C169   1.249       .  A
O159       Al161   1.848       .  S
O160        C173   1.247       .  A
O160       Al170   1.843       .  S
Al161       O174   1.975       .  S
Al161       O171   1.971       .  S
Al161       O166   1.782       .  S
O162        C169   1.276       .  A
O162       Al170   1.972       .  S
O163        C172   1.277       .  A
O163       Al170   1.954       .  S
O164       Al170   1.832       .  S
O165        C172   1.246       .  A
O166       Al170   1.784       .  S
O167        C168   1.274       .  A
C168        C251   1.567       .  S
C169        C176   1.575       .  S
C172       C1087   1.567   1_455  S
C173        O174   1.275       .  A
C173        C175   1.565       .  S
C175        C476   1.567       .  S
C175        C178   1.545       .  S
C176        C458   1.558       .  S
C176        C181   1.546       .  S
C177        H184   1.078       .  S
C177       C1090   1.408   1_455  A
C177        C220   1.391   1_554  A
C178        C481   1.408       .  A
C179        C254   1.418       .  A
C179        C218   1.413   1_554  A
C179        N186   1.436       .  S
C180        H185   1.080       .  S
C180        C217   1.413       .  A
C180        C257   1.412       .  A
C181        C486   1.428       .  A
C182        C215   1.391       .  A
C182       C1093   1.428       .  A
C182        N183   1.432       .  S
N183        H187   1.043       .  S
N183        H188   1.044       .  S
N186        H189   1.043       .  S
N186        H190   1.044       .  S
O191        C206   1.248       .  A
O191       Al199   1.846       .  S
C192        O202   1.246       .  A
C192        O193   1.276       .  A
C192       C1126   1.558       .  S
O193       Al195   1.959       .  S
O194        C196   1.247       .  A
O194       Al195   1.843       .  S
Al195       O203   1.837       .  S
Al195       O205   1.965       .  S
Al195       O204   1.785       .  S
C196        O209   1.275       .  A
C196        C290   1.562       .  S
O197        C207   1.249       .  A
O197       Al199   1.848       .  S
O198        C211   1.247       .  A
O198       Al208   1.843       .  S
Al199       O212   1.975       .  S
Al199       O209   1.971       .  S
Al199       O204   1.782       .  S
O200        C207   1.276       .  A
O200       Al208   1.972       .  S
O201        C210   1.277       .  A
O201       Al208   1.954       .  S
O202       Al208   1.832       .  S
O203        C210   1.246       .  A
O204       Al208   1.784       .  S
O205        C206   1.274       .  A
C206        C289   1.567       .  S
C207        C214   1.575       .  S
C210       C1125   1.567   1_455  S
C211        O212   1.275       .  A
C211        C213   1.565       .  S
C213        C514   1.567       .  S
C213        C216   1.545       .  S
C214        C496   1.558       .  S
C214        C219   1.546       .  S
C215        H222   1.078       .  S
C215       C1128   1.408   1_455  A
C216        C519   1.408       .  A
C217        C292   1.418       .  A
C217        N224   1.436       .  S
C218        H223   1.080       .  S
C218        C295   1.412       .  A
C219        C524   1.428       .  A
C220       C1131   1.428       .  A
C220        N221   1.432       .  S
N221        H225   1.043       .  S
N221        H226   1.044       .  S
N224        H227   1.043       .  S
N224        H228   1.044       .  S
O229        C244   1.248       .  A
O229       Al237   1.846       .  S
C230        O240   1.246       .  A
C230        O231   1.276       .  A
C230       C1164   1.558       .  S
O231       Al233   1.959       .  S
O232        C234   1.247       .  A
O232       Al233   1.843       .  S
Al233       O241   1.836       .  S
Al233       O243   1.965       .  S
Al233       O242   1.785       .  S
C234        O247   1.275       .  A
O235        C245   1.249       .  A
O235       Al237   1.848       .  S
O236        C249   1.247       .  A
O236       Al246   1.843       .  S
Al237       O250   1.975       .  S
Al237       O247   1.971       .  S
Al237       O242   1.782       .  S
O238        C245   1.276       .  A
O238       Al246   1.972       .  S
O239        C248   1.277       .  A
O239       Al246   1.954       .  S
O240       Al246   1.832       .  S
O241        C248   1.246       .  A
O242       Al246   1.784       .  S
O243        C244   1.274       .  A
C245        C252   1.575       .  S
C248       C1163   1.567   1_455  S
C249        O250   1.275       .  A
C249        C251   1.565       .  S
C251        C552   1.567       .  S
C251        C254   1.545       .  S
C252        C534   1.558       .  S
C252        C257   1.546       .  S
C253        H260   1.078       .  S
C253       C1166   1.408   1_455  A
C253        C296   1.391   1_554  A
C254        C557   1.408       .  A
C255        C294   1.413   1_554  A
C255        N262   1.436       .  S
C256        H261   1.080       .  S
C256        C293   1.413       .  A
C257        C562   1.428       .  A
C258        C291   1.391       .  A
C258       C1169   1.428       .  A
C258        N259   1.432       .  S
N259        H263   1.043       .  S
N259        H264   1.044       .  S
N262        H265   1.043       .  S
N262        H266   1.044       .  S
O267        C282   1.248       .  A
O267       Al275   1.846       .  S
C268        O278   1.246       .  A
C268        O269   1.276       .  A
C268       C1202   1.558       .  S
O269       Al271   1.959       .  S
O270        C272   1.247       .  A
O270       Al271   1.843       .  S
Al271       O279   1.836       .  S
Al271       O281   1.965       .  S
Al271       O280   1.785       .  S
C272        O285   1.275       .  A
O273        C283   1.249       .  A
O273       Al275   1.848       .  S
O274        C287   1.247       .  A
O274       Al284   1.843       .  S
Al275       O288   1.975       .  S
Al275       O285   1.971       .  S
Al275       O280   1.782       .  S
O276        C283   1.276       .  A
O276       Al284   1.972       .  S
O277        C286   1.277       .  A
O277       Al284   1.954       .  S
O278       Al284   1.832       .  S
O279        C286   1.246       .  A
O280       Al284   1.784       .  S
O281        C282   1.274       .  A
C283        C290   1.575       .  S
C286       C1201   1.567   1_455  S
C287        O288   1.275       .  A
C287        C289   1.565       .  S
C289        C590   1.567       .  S
C289        C292   1.545       .  S
C290        C572   1.558       .  S
C290        C295   1.546       .  S
C291        H298   1.078       .  S
C291       C1204   1.408   1_455  A
C292        C595   1.408       .  A
C293        N300   1.436       .  S
C294        H299   1.080       .  S
C295        C600   1.428       .  A
C296       C1207   1.428       .  A
C296        N297   1.432       .  S
N297        H301   1.043       .  S
N297        H302   1.044       .  S
N300        H303   1.043       .  S
N300        H304   1.044       .  S
O305        C320   1.248       .  A
O305       Al313   1.846       .  S
C306        O316   1.246       .  A
C306        O307   1.276       .  A
O307       Al309   1.959       .  S
O308        C310   1.247       .  A
O308       Al309   1.843       .  S
Al309       O317   1.836       .  S
Al309       O319   1.965       .  S
Al309       O318   1.785       .  S
C310        O323   1.275       .  A
C310        C404   1.562       .  S
O311        C321   1.249       .  A
O311       Al313   1.848       .  S
O312        C325   1.247       .  A
O312       Al322   1.843       .  S
Al313       O326   1.975       .  S
Al313       O323   1.971       .  S
Al313       O318   1.782       .  S
O314        C321   1.276       .  A
O314       Al322   1.972       .  S
O315        C324   1.277       .  A
O315       Al322   1.954       .  S
O316       Al322   1.832       .  S
O317        C324   1.246       .  A
O318       Al322   1.784       .  S
O319        C320   1.274       .  A
C320        C403   1.567       .  S
C321        C328   1.575       .  S
C325        O326   1.275       .  A
C325        C327   1.565   1_545  S
C327        C548   1.567       .  S
C327        C628   1.567   1_565  S
C327        C330   1.545       .  S
C328        C610   1.558       .  S
C328        C538   1.562   1_545  S
C328        C333   1.546       .  S
C329        H336   1.078       .  S
C329        C372   1.391   1_554  A
C330        C633   1.408   1_565  A
C330        C559   1.418       .  A
C331        C406   1.418       .  A
C331        C370   1.413   1_554  A
C331        N338   1.436       .  S
C332        H337   1.080       .  S
C332        C369   1.413       .  A
C332        C409   1.412       .  A
C333        C560   1.412   1_545  A
C333        C638   1.428       .  A
C334        C367   1.391       .  A
C334        N335   1.432       .  S
N335        H339   1.043       .  S
N335        H340   1.044   1_545  S
N338        H341   1.043       .  S
N338        H342   1.044       .  S
O343        C358   1.248       .  A
O343       Al351   1.846       .  S
C344        O354   1.246       .  A
C344        O345   1.276       .  A
O345       Al347   1.959       .  S
O346        C348   1.247       .  A
O346       Al347   1.843       .  S
Al347       O355   1.836       .  S
Al347       O357   1.965       .  S
Al347       O356   1.785       .  S
C348        O361   1.275       .  A
C348        C442   1.562       .  S
O349        C359   1.249       .  A
O349       Al351   1.848       .  S
O350        C363   1.247       .  A
O350       Al360   1.843       .  S
Al351       O364   1.975       .  S
Al351       O361   1.971       .  S
Al351       O356   1.782       .  S
O352        C359   1.276       .  A
O352       Al360   1.972       .  S
O353        C362   1.277       .  A
O353       Al360   1.954       .  S
O354       Al360   1.832       .  S
O355        C362   1.246       .  A
O356       Al360   1.784       .  S
O357        C358   1.274       .  A
C358        C441   1.567       .  S
C359        C366   1.575       .  S
C363        O364   1.275       .  A
C363        C365   1.565   1_545  S
C365        C586   1.567       .  S
C365        C666   1.567   1_565  S
C365        C368   1.545       .  S
C366        C648   1.558       .  S
C366        C576   1.562   1_545  S
C366        C371   1.546       .  S
C367        H374   1.078       .  S
C368        C671   1.408   1_565  A
C368        C597   1.418       .  A
C369        C444   1.418       .  A
C369        N376   1.436       .  S
C370        H375   1.080       .  S
C370        C447   1.412       .  A
C371        C598   1.412   1_545  A
C371        C676   1.428       .  A
C372        N373   1.432       .  S
N373        H377   1.043       .  S
N373        H378   1.044   1_545  S
N376        H379   1.043       .  S
N376        H380   1.044       .  S
O381        C396   1.248       .  A
O381       Al389   1.846       .  S
C382        O392   1.246       .  A
C382        O383   1.276       .  A
O383       Al385   1.959       .  S
O384        C386   1.247       .  A
O384       Al385   1.843       .  S
Al385       O393   1.836       .  S
Al385       O395   1.965       .  S
Al385       O394   1.785       .  S
C386        O399   1.275       .  A
C386        C480   1.562       .  S
O387        C397   1.249       .  A
O387       Al389   1.848       .  S
O388        C401   1.247       .  A
O388       Al398   1.843       .  S
Al389       O402   1.975       .  S
Al389       O399   1.971       .  S
Al389       O394   1.782       .  S
O390        C397   1.276       .  A
O390       Al398   1.972       .  S
O391        C400   1.277       .  A
O391       Al398   1.954       .  S
O392       Al398   1.832       .  S
O393        C400   1.246       .  A
O394       Al398   1.784       .  S
O395        C396   1.274       .  A
C396        C479   1.567       .  S
C397        C404   1.575       .  S
C401        O402   1.275       .  A
C401        C403   1.565       .  S
C403        C704   1.567       .  S
C403        C406   1.545       .  S
C404        C686   1.558       .  S
C404        C409   1.546       .  S
C405        H412   1.078       .  S
C405        C448   1.391   1_554  A
C406        C709   1.408       .  A
C407        C482   1.418       .  A
C407        C446   1.413   1_554  A
C407        N414   1.436       .  S
C408        H413   1.080       .  S
C408        C445   1.413       .  A
C408        C485   1.412       .  A
C409        C714   1.428       .  A
C410        C443   1.391       .  A
C410        N411   1.432       .  S
N411        H415   1.043       .  S
N411        H416   1.044       .  S
N414        H417   1.043       .  S
N414        H418   1.044       .  S
O419        C434   1.248       .  A
O419       Al427   1.846       .  S
C420        O430   1.246       .  A
C420        O421   1.276       .  A
O421       Al423   1.959       .  S
O422        C424   1.247       .  A
O422       Al423   1.843       .  S
Al423       O431   1.836       .  S
Al423       O433   1.965       .  S
Al423       O432   1.785       .  S
C424        O437   1.275       .  A
C424        C518   1.562       .  S
O425        C435   1.249       .  A
O425       Al427   1.848       .  S
O426        C439   1.247       .  A
O426       Al436   1.843       .  S
Al427       O440   1.975       .  S
Al427       O437   1.971       .  S
Al427       O432   1.782       .  S
O428        C435   1.276       .  A
O428       Al436   1.972       .  S
O429        C438   1.277       .  A
O429       Al436   1.954       .  S
O430       Al436   1.832       .  S
O431        C438   1.246       .  A
O432       Al436   1.784       .  S
O433        C434   1.274       .  A
C434        C517   1.567       .  S
C435        C442   1.575       .  S
C439        O440   1.275       .  A
C439        C441   1.565       .  S
C441        C742   1.567       .  S
C441        C444   1.545       .  S
C442        C724   1.558       .  S
C442        C447   1.546       .  S
C443        H450   1.078       .  S
C444        C747   1.408       .  A
C445        C520   1.418       .  A
C445        N452   1.436       .  S
C446        H451   1.080       .  S
C446        C523   1.412       .  A
C447        C752   1.428       .  A
C448        N449   1.432       .  S
N449        H453   1.043       .  S
N449        H454   1.044       .  S
N452        H455   1.043       .  S
N452        H456   1.044       .  S
O457        C472   1.248       .  A
O457       Al465   1.846       .  S
C458        O468   1.246       .  A
C458        O459   1.276       .  A
O459       Al461   1.959       .  S
O460        C462   1.247       .  A
O460       Al461   1.843       .  S
Al461       O469   1.837       .  S
Al461       O471   1.965       .  S
Al461       O470   1.785       .  S
C462        O475   1.275       .  A
C462        C556   1.562       .  S
O463        C473   1.249       .  A
O463       Al465   1.848       .  S
O464        C477   1.247       .  A
O464       Al474   1.843       .  S
Al465       O478   1.975       .  S
Al465       O475   1.971       .  S
Al465       O470   1.782       .  S
O466        C473   1.276       .  A
O466       Al474   1.972       .  S
O467        C476   1.277       .  A
O467       Al474   1.954       .  S
O468       Al474   1.832       .  S
O469        C476   1.246       .  A
O470       Al474   1.784       .  S
O471        C472   1.274       .  A
C472        C555   1.567       .  S
C473        C480   1.575       .  S
C477        O478   1.275       .  A
C477        C479   1.565       .  S
C479        C780   1.567       .  S
C479        C482   1.545       .  S
C480        C762   1.558       .  S
C480        C485   1.546       .  S
C481        H488   1.078       .  S
C481        C524   1.391   1_554  A
C482        C785   1.408       .  A
C483        C558   1.418       .  A
C483        C522   1.413   1_554  A
C483        N490   1.436       .  S
C484        H489   1.080       .  S
C484        C521   1.413       .  A
C484        C561   1.412       .  A
C485        C790   1.428       .  A
C486        C519   1.391       .  A
C486        N487   1.432       .  S
N487        H491   1.043       .  S
N487        H492   1.044       .  S
N490        H493   1.043       .  S
N490        H494   1.044       .  S
O495        C510   1.248       .  A
O495       Al503   1.846       .  S
C496        O506   1.246       .  A
C496        O497   1.276       .  A
O497       Al499   1.959       .  S
O498        C500   1.247       .  A
O498       Al499   1.843       .  S
Al499       O507   1.837       .  S
Al499       O509   1.965       .  S
Al499       O508   1.785       .  S
C500        O513   1.275       .  A
C500        C594   1.562       .  S
O501        C511   1.249       .  A
O501       Al503   1.848       .  S
O502        C515   1.247       .  A
O502       Al512   1.843       .  S
Al503       O516   1.975       .  S
Al503       O513   1.971       .  S
Al503       O508   1.782       .  S
O504        C511   1.276       .  A
O504       Al512   1.972       .  S
O505        C514   1.277       .  A
O505       Al512   1.954       .  S
O506       Al512   1.832       .  S
O507        C514   1.246       .  A
O508       Al512   1.784       .  S
O509        C510   1.274       .  A
C510        C593   1.567       .  S
C511        C518   1.575       .  S
C515        O516   1.275       .  A
C515        C517   1.565       .  S
C517        C818   1.567       .  S
C517        C520   1.545       .  S
C518        C800   1.558       .  S
C518        C523   1.546       .  S
C519        H526   1.078       .  S
C520        C823   1.408       .  A
C521        C596   1.418       .  A
C521        N528   1.436       .  S
C522        H527   1.080       .  S
C522        C599   1.412       .  A
C523        C828   1.428       .  A
C524        N525   1.432       .  S
N525        H529   1.043       .  S
N525        H530   1.044       .  S
N528        H531   1.043       .  S
N528        H532   1.044       .  S
O533        C548   1.248       .  A
O533       Al541   1.846       .  S
C534        O544   1.246       .  A
C534        O535   1.276       .  A
O535       Al537   1.959       .  S
O536        C538   1.247       .  A
O536       Al537   1.843       .  S
Al537       O545   1.836       .  S
Al537       O547   1.965       .  S
Al537       O546   1.785       .  S
C538        O551   1.275       .  A
O539        C549   1.249       .  A
O539       Al541   1.848       .  S
O540        C553   1.247       .  A
O540       Al550   1.843       .  S
Al541       O554   1.975       .  S
Al541       O551   1.971       .  S
Al541       O546   1.782       .  S
O542        C549   1.276       .  A
O542       Al550   1.972       .  S
O543        C552   1.277       .  A
O543       Al550   1.954       .  S
O544       Al550   1.832       .  S
O545        C552   1.246       .  A
O546       Al550   1.784       .  S
O547        C548   1.274       .  A
C549        C556   1.575       .  S
C553        O554   1.275       .  A
C553        C555   1.565       .  S
C555        C856   1.567       .  S
C555        C558   1.545       .  S
C556        C838   1.558       .  S
C556        C561   1.546       .  S
C557        H564   1.078       .  S
C557        C600   1.391   1_554  A
C558        C861   1.408       .  A
C559        C598   1.413   1_554  A
C559        N566   1.436       .  S
C560        H565   1.080       .  S
C560        C597   1.413       .  A
C561        C866   1.428       .  A
C562        C595   1.391       .  A
C562        N563   1.432       .  S
N563        H567   1.043       .  S
N563        H568   1.044       .  S
N566        H569   1.043       .  S
N566        H570   1.044       .  S
O571        C586   1.248       .  A
O571       Al579   1.846       .  S
C572        O582   1.246       .  A
C572        O573   1.276       .  A
O573       Al575   1.959       .  S
O574        C576   1.247       .  A
O574       Al575   1.843       .  S
Al575       O583   1.836       .  S
Al575       O585   1.965       .  S
Al575       O584   1.785       .  S
C576        O589   1.275       .  A
O577        C587   1.249       .  A
O577       Al579   1.848       .  S
O578        C591   1.247       .  A
O578       Al588   1.843       .  S
Al579       O592   1.975       .  S
Al579       O589   1.971       .  S
Al579       O584   1.782       .  S
O580        C587   1.276       .  A
O580       Al588   1.972       .  S
O581        C590   1.277       .  A
O581       Al588   1.954       .  S
O582       Al588   1.832       .  S
O583        C590   1.246       .  A
O584       Al588   1.784       .  S
O585        C586   1.274       .  A
C587        C594   1.575       .  S
C591        O592   1.275       .  A
C591        C593   1.565       .  S
C593        C894   1.567       .  S
C593        C596   1.545       .  S
C594        C876   1.558       .  S
C594        C599   1.546       .  S
C595        H602   1.078       .  S
C596        C899   1.408       .  A
C597        N604   1.436       .  S
C598        H603   1.080       .  S
C599        C904   1.428       .  A
C600        N601   1.432       .  S
N601        H605   1.043       .  S
N601        H606   1.044       .  S
N604        H607   1.043       .  S
N604        H608   1.044       .  S
O609        C624   1.248       .  A
O609       Al617   1.846       .  S
C610        O620   1.246       .  A
C610        O611   1.276       .  A
O611       Al613   1.959       .  S
O612        C614   1.247       .  A
O612       Al613   1.843       .  S
Al613       O621   1.836       .  S
Al613       O623   1.965       .  S
Al613       O622   1.785       .  S
C614        O627   1.275       .  A
C614        C708   1.562       .  S
O615        C625   1.249       .  A
O615       Al617   1.848       .  S
O616        C629   1.247       .  A
O616       Al626   1.843       .  S
Al617       O630   1.975       .  S
Al617       O627   1.971       .  S
Al617       O622   1.782       .  S
O618        C625   1.276       .  A
O618       Al626   1.972       .  S
O619        C628   1.277       .  A
O619       Al626   1.954       .  S
O620       Al626   1.832       .  S
O621        C628   1.246       .  A
O622       Al626   1.784       .  S
O623        C624   1.274       .  A
C624        C707   1.567       .  S
C625        C632   1.575       .  S
C629        O630   1.275       .  A
C629        C631   1.565   1_545  S
C631        C852   1.567       .  S
C631        C932   1.567   1_565  S
C631        C634   1.545       .  S
C632        C914   1.558       .  S
C632        C842   1.562   1_545  S
C632        C637   1.546       .  S
C633        H640   1.078       .  S
C633        C676   1.391   1_554  A
C634        C937   1.408   1_565  A
C634        C863   1.418       .  A
C635        C710   1.418       .  A
C635        C674   1.413   1_554  A
C635        N642   1.436       .  S
C636        H641   1.080       .  S
C636        C673   1.413       .  A
C636        C713   1.412       .  A
C637        C864   1.412   1_545  A
C637        C942   1.428       .  A
C638        C671   1.391       .  A
C638        N639   1.432       .  S
N639        H643   1.043       .  S
N639        H644   1.044   1_545  S
N642        H645   1.043       .  S
N642        H646   1.044       .  S
O647        C662   1.248       .  A
O647       Al655   1.846       .  S
C648        O658   1.246       .  A
C648        O649   1.276       .  A
O649       Al651   1.959       .  S
O650        C652   1.247       .  A
O650       Al651   1.843       .  S
Al651       O659   1.836       .  S
Al651       O661   1.965       .  S
Al651       O660   1.785       .  S
C652        O665   1.275       .  A
C652        C746   1.562       .  S
O653        C663   1.249       .  A
O653       Al655   1.848       .  S
O654        C667   1.247       .  A
O654       Al664   1.843       .  S
Al655       O668   1.975       .  S
Al655       O665   1.971       .  S
Al655       O660   1.782       .  S
O656        C663   1.276       .  A
O656       Al664   1.972       .  S
O657        C666   1.277       .  A
O657       Al664   1.954       .  S
O658       Al664   1.832       .  S
O659        C666   1.246       .  A
O660       Al664   1.784       .  S
O661        C662   1.274       .  A
C662        C745   1.567       .  S
C663        C670   1.575       .  S
C667        O668   1.275       .  A
C667        C669   1.565   1_545  S
C669        C890   1.567       .  S
C669        C970   1.567   1_565  S
C669        C672   1.545       .  S
C670        C952   1.558       .  S
C670        C880   1.562   1_545  S
C670        C675   1.546       .  S
C671        H678   1.078       .  S
C672        C975   1.408   1_565  A
C672        C901   1.418       .  A
C673        C748   1.418       .  A
C673        N680   1.436       .  S
C674        H679   1.080       .  S
C674        C751   1.412       .  A
C675        C902   1.412   1_545  A
C675        C980   1.428       .  A
C676        N677   1.432       .  S
N677        H681   1.043       .  S
N677        H682   1.044   1_545  S
N680        H683   1.043       .  S
N680        H684   1.044       .  S
O685        C700   1.248       .  A
O685       Al693   1.846       .  S
C686        O696   1.246       .  A
C686        O687   1.276       .  A
O687       Al689   1.959       .  S
O688        C690   1.247       .  A
O688       Al689   1.843       .  S
Al689       O697   1.836       .  S
Al689       O699   1.965       .  S
Al689       O698   1.785       .  S
C690        O703   1.275       .  A
C690        C784   1.562       .  S
O691        C701   1.249       .  A
O691       Al693   1.848       .  S
O692        C705   1.247       .  A
O692       Al702   1.843       .  S
Al693       O706   1.975       .  S
Al693       O703   1.971       .  S
Al693       O698   1.782       .  S
O694        C701   1.276       .  A
O694       Al702   1.972       .  S
O695        C704   1.277       .  A
O695       Al702   1.954       .  S
O696       Al702   1.832       .  S
O697        C704   1.246       .  A
O698       Al702   1.784       .  S
O699        C700   1.274       .  A
C700        C783   1.567       .  S
C701        C708   1.575       .  S
C705        O706   1.275       .  A
C705        C707   1.565       .  S
C707       C1008   1.567       .  S
C707        C710   1.545       .  S
C708        C990   1.558       .  S
C708        C713   1.546       .  S
C709        H716   1.078       .  S
C709        C752   1.391   1_554  A
C710       C1013   1.408       .  A
C711        C786   1.418       .  A
C711        C750   1.413   1_554  A
C711        N718   1.436       .  S
C712        H717   1.080       .  S
C712        C749   1.413       .  A
C712        C789   1.412       .  A
C713       C1018   1.428       .  A
C714        C747   1.391       .  A
C714        N715   1.432       .  S
N715        H719   1.043       .  S
N715        H720   1.044       .  S
N718        H721   1.043       .  S
N718        H722   1.044       .  S
O723        C738   1.248       .  A
O723       Al731   1.846       .  S
C724        O734   1.246       .  A
C724        O725   1.276       .  A
O725       Al727   1.959       .  S
O726        C728   1.247       .  A
O726       Al727   1.843       .  S
Al727       O735   1.836       .  S
Al727       O737   1.965       .  S
Al727       O736   1.785       .  S
C728        O741   1.275       .  A
C728        C822   1.562       .  S
O729        C739   1.249       .  A
O729       Al731   1.848       .  S
O730        C743   1.247       .  A
O730       Al740   1.843       .  S
Al731       O744   1.975       .  S
Al731       O741   1.971       .  S
Al731       O736   1.782       .  S
O732        C739   1.276       .  A
O732       Al740   1.972       .  S
O733        C742   1.277       .  A
O733       Al740   1.954       .  S
O734       Al740   1.832       .  S
O735        C742   1.246       .  A
O736       Al740   1.784       .  S
O737        C738   1.274       .  A
C738        C821   1.567       .  S
C739        C746   1.575       .  S
C743        O744   1.275       .  A
C743        C745   1.565       .  S
C745       C1046   1.567       .  S
C745        C748   1.545       .  S
C746       C1028   1.558       .  S
C746        C751   1.546       .  S
C747        H754   1.078       .  S
C748       C1051   1.408       .  A
C749        C824   1.418       .  A
C749        N756   1.436       .  S
C750        H755   1.080       .  S
C750        C827   1.412       .  A
C751       C1056   1.428       .  A
C752        N753   1.432       .  S
N753        H757   1.043       .  S
N753        H758   1.044       .  S
N756        H759   1.043       .  S
N756        H760   1.044       .  S
O761        C776   1.248       .  A
O761       Al769   1.846       .  S
C762        O772   1.246       .  A
C762        O763   1.276       .  A
O763       Al765   1.959       .  S
O764        C766   1.247       .  A
O764       Al765   1.843       .  S
Al765       O773   1.837       .  S
Al765       O775   1.965       .  S
Al765       O774   1.785       .  S
C766        O779   1.275       .  A
C766        C860   1.562       .  S
O767        C777   1.249       .  A
O767       Al769   1.848       .  S
O768        C781   1.247       .  A
O768       Al778   1.843       .  S
Al769       O782   1.975       .  S
Al769       O779   1.971       .  S
Al769       O774   1.782       .  S
O770        C777   1.276       .  A
O770       Al778   1.972       .  S
O771        C780   1.277       .  A
O771       Al778   1.954       .  S
O772       Al778   1.832       .  S
O773        C780   1.246       .  A
O774       Al778   1.784       .  S
O775        C776   1.274       .  A
C776        C859   1.567       .  S
C777        C784   1.575       .  S
C781        O782   1.275       .  A
C781        C783   1.565       .  S
C783       C1084   1.567       .  S
C783        C786   1.545       .  S
C784       C1066   1.558       .  S
C784        C789   1.546       .  S
C785        H792   1.078       .  S
C785        C828   1.391   1_554  A
C786       C1089   1.408       .  A
C787        C862   1.418       .  A
C787        C826   1.413   1_554  A
C787        N794   1.436       .  S
C788        H793   1.080       .  S
C788        C825   1.413       .  A
C788        C865   1.412       .  A
C789       C1094   1.428       .  A
C790        C823   1.391       .  A
C790        N791   1.432       .  S
N791        H795   1.043       .  S
N791        H796   1.044       .  S
N794        H797   1.043       .  S
N794        H798   1.044       .  S
O799        C814   1.248       .  A
O799       Al807   1.846       .  S
C800        O810   1.246       .  A
C800        O801   1.276       .  A
O801       Al803   1.959       .  S
O802        C804   1.247       .  A
O802       Al803   1.843       .  S
Al803       O811   1.837       .  S
Al803       O813   1.965       .  S
Al803       O812   1.785       .  S
C804        O817   1.275       .  A
C804        C898   1.562       .  S
O805        C815   1.249       .  A
O805       Al807   1.848       .  S
O806        C819   1.247       .  A
O806       Al816   1.843       .  S
Al807       O820   1.975       .  S
Al807       O817   1.971       .  S
Al807       O812   1.782       .  S
O808        C815   1.276       .  A
O808       Al816   1.972       .  S
O809        C818   1.277       .  A
O809       Al816   1.954       .  S
O810       Al816   1.832       .  S
O811        C818   1.246       .  A
O812       Al816   1.784       .  S
O813        C814   1.274       .  A
C814        C897   1.567       .  S
C815        C822   1.575       .  S
C819        O820   1.275       .  A
C819        C821   1.565       .  S
C821       C1122   1.567       .  S
C821        C824   1.545       .  S
C822       C1104   1.558       .  S
C822        C827   1.546       .  S
C823        H830   1.078       .  S
C824       C1127   1.408       .  A
C825        C900   1.418       .  A
C825        N832   1.436       .  S
C826        H831   1.080       .  S
C826        C903   1.412       .  A
C827       C1132   1.428       .  A
C828        N829   1.432       .  S
N829        H833   1.043       .  S
N829        H834   1.044       .  S
N832        H835   1.043       .  S
N832        H836   1.044       .  S
O837        C852   1.248       .  A
O837       Al845   1.846       .  S
C838        O848   1.246       .  A
C838        O839   1.276       .  A
O839       Al841   1.959       .  S
O840        C842   1.247       .  A
O840       Al841   1.843       .  S
Al841       O849   1.836       .  S
Al841       O851   1.965       .  S
Al841       O850   1.785       .  S
C842        O855   1.275       .  A
O843        C853   1.249       .  A
O843       Al845   1.848       .  S
O844        C857   1.247       .  A
O844       Al854   1.843       .  S
Al845       O858   1.975       .  S
Al845       O855   1.971       .  S
Al845       O850   1.782       .  S
O846        C853   1.276       .  A
O846       Al854   1.972       .  S
O847        C856   1.277       .  A
O847       Al854   1.954       .  S
O848       Al854   1.832       .  S
O849        C856   1.246       .  A
O850       Al854   1.784       .  S
O851        C852   1.274       .  A
C853        C860   1.575       .  S
C857        O858   1.275       .  A
C857        C859   1.565       .  S
C859       C1160   1.567       .  S
C859        C862   1.545       .  S
C860       C1142   1.558       .  S
C860        C865   1.546       .  S
C861        H868   1.078       .  S
C861        C904   1.391   1_554  A
C862       C1165   1.408       .  A
C863        C902   1.413   1_554  A
C863        N870   1.436       .  S
C864        H869   1.080       .  S
C864        C901   1.413       .  A
C865       C1170   1.428       .  A
C866        C899   1.391       .  A
C866        N867   1.432       .  S
N867        H871   1.043       .  S
N867        H872   1.044       .  S
N870        H873   1.043       .  S
N870        H874   1.044       .  S
O875        C890   1.248       .  A
O875       Al883   1.846       .  S
C876        O886   1.246       .  A
C876        O877   1.276       .  A
O877       Al879   1.959       .  S
O878        C880   1.247       .  A
O878       Al879   1.843       .  S
Al879       O887   1.836       .  S
Al879       O889   1.965       .  S
Al879       O888   1.785       .  S
C880        O893   1.275       .  A
O881        C891   1.249       .  A
O881       Al883   1.848       .  S
O882        C895   1.247       .  A
O882       Al892   1.843       .  S
Al883       O896   1.975       .  S
Al883       O893   1.971       .  S
Al883       O888   1.782       .  S
O884        C891   1.276       .  A
O884       Al892   1.972       .  S
O885        C894   1.277       .  A
O885       Al892   1.954       .  S
O886       Al892   1.832       .  S
O887        C894   1.246       .  A
O888       Al892   1.784       .  S
O889        C890   1.274       .  A
C891        C898   1.575       .  S
C895        O896   1.275       .  A
C895        C897   1.565       .  S
C897       C1198   1.567       .  S
C897        C900   1.545       .  S
C898       C1180   1.558       .  S
C898        C903   1.546       .  S
C899        H906   1.078       .  S
C900       C1203   1.408       .  A
C901        N908   1.436       .  S
C902        H907   1.080       .  S
C903       C1208   1.428       .  A
C904        N905   1.432       .  S
N905        H909   1.043       .  S
N905        H910   1.044       .  S
N908        H911   1.043       .  S
N908        H912   1.044       .  S
O913        C928   1.248       .  A
O913       Al921   1.846       .  S
C914        O924   1.246       .  A
C914        O915   1.276       .  A
O915       Al917   1.959       .  S
O916        C918   1.247       .  A
O916       Al917   1.843       .  S
Al917       O925   1.836       .  S
Al917       O927   1.965       .  S
Al917       O926   1.785       .  S
C918        O931   1.275       .  A
C918       C1012   1.562   1_655  S
O919        C929   1.249       .  A
O919       Al921   1.848       .  S
O920        C933   1.247       .  A
O920       Al930   1.843       .  S
Al921       O934   1.975       .  S
Al921       O931   1.971       .  S
Al921       O926   1.782       .  S
O922        C929   1.276       .  A
O922       Al930   1.972       .  S
O923        C932   1.277       .  A
O923       Al930   1.954       .  S
O924       Al930   1.832       .  S
O925        C932   1.246       .  A
O926       Al930   1.784       .  S
O927        C928   1.274       .  A
C928       C1011   1.567       .  S
C929        C936   1.575   1_655  S
C933        O934   1.275       .  A
C933        C935   1.565   1_545  S
C935       C1156   1.567       .  S
C935        C938   1.545       .  S
C936       C1146   1.562   1_445  S
C936        C941   1.546       .  S
C937        H944   1.078       .  S
C937        C980   1.391   1_554  A
C938       C1167   1.418       .  A
C939       C1014   1.418       .  A
C939        C978   1.413   1_554  A
C939        N946   1.436       .  S
C940        H945   1.080       .  S
C940        C977   1.413       .  A
C940       C1017   1.412   1_655  A
C941       C1168   1.412   1_445  A
C942        C975   1.391       .  A
C942        N943   1.432       .  S
N943        H947   1.043       .  S
N943        H948   1.044   1_545  S
N946        H949   1.043       .  S
N946        H950   1.044       .  S
O951        C966   1.248       .  A
O951       Al959   1.846       .  S
C952        O962   1.246       .  A
C952        O953   1.276       .  A
O953       Al955   1.959       .  S
O954        C956   1.247       .  A
O954       Al955   1.843       .  S
Al955       O963   1.836       .  S
Al955       O965   1.965       .  S
Al955       O964   1.785       .  S
C956        O969   1.275       .  A
C956       C1050   1.562   1_655  S
O957        C967   1.249       .  A
O957       Al959   1.848       .  S
O958        C971   1.247       .  A
O958       Al968   1.843       .  S
Al959       O972   1.975       .  S
Al959       O969   1.971       .  S
Al959       O964   1.782       .  S
O960        C967   1.276       .  A
O960       Al968   1.972       .  S
O961        C970   1.277       .  A
O961       Al968   1.954       .  S
O962       Al968   1.832       .  S
O963        C970   1.246       .  A
O964       Al968   1.784       .  S
O965        C966   1.274       .  A
C966       C1049   1.567       .  S
C967        C974   1.575   1_655  S
C971        O972   1.275       .  A
C971        C973   1.565   1_545  S
C973       C1194   1.567       .  S
C973        C976   1.545       .  S
C974       C1184   1.562   1_445  S
C974        C979   1.546       .  S
C975        H982   1.078       .  S
C976       C1205   1.418       .  A
C977       C1052   1.418       .  A
C977        N984   1.436       .  S
C978        H983   1.080       .  S
C978       C1055   1.412   1_655  A
C979       C1206   1.412   1_445  A
C980        N981   1.432       .  S
N981        H985   1.043       .  S
N981        H986   1.044   1_545  S
N984        H987   1.043       .  S
N984        H988   1.044       .  S
O989       C1004   1.248       .  A
O989       Al997   1.846       .  S
C990       O1000   1.246       .  A
C990        O991   1.276       .  A
O991       Al993   1.959       .  S
O992        C994   1.247       .  A
O992       Al993   1.843       .  S
Al993      O1001   1.836       .  S
Al993      O1003   1.965       .  S
Al993      O1002   1.785       .  S
C994       O1007   1.275       .  A
C994       C1088   1.562   1_655  S
O995       C1005   1.249       .  A
O995       Al997   1.848       .  S
O996       C1009   1.247       .  A
O996      Al1006   1.843       .  S
Al997      O1010   1.975       .  S
Al997      O1007   1.971       .  S
Al997      O1002   1.782       .  S
O998       C1005   1.276       .  A
O998      Al1006   1.972       .  S
O999       C1008   1.277       .  A
O999      Al1006   1.954       .  S
O1000     Al1006   1.832       .  S
O1001      C1008   1.246       .  A
O1002     Al1006   1.784       .  S
O1003      C1004   1.274       .  A
C1004      C1087   1.567       .  S
C1005      C1012   1.575   1_655  S
C1009      O1010   1.275       .  A
C1009      C1011   1.565       .  S
C1011      C1014   1.545       .  S
C1012      C1017   1.546       .  S
C1013      H1020   1.078       .  S
C1013      C1056   1.391   1_554  A
C1015      C1090   1.418       .  A
C1015      C1054   1.413   1_554  A
C1015      N1022   1.436       .  S
C1016      H1021   1.080       .  S
C1016      C1053   1.413       .  A
C1016      C1093   1.412   1_655  A
C1018      C1051   1.391       .  A
C1018      N1019   1.432       .  S
N1019      H1023   1.043       .  S
N1019      H1024   1.044       .  S
N1022      H1025   1.043       .  S
N1022      H1026   1.044       .  S
O1027      C1042   1.248       .  A
O1027     Al1035   1.846       .  S
C1028      O1038   1.246       .  A
C1028      O1029   1.276       .  A
O1029     Al1031   1.959       .  S
O1030      C1032   1.247       .  A
O1030     Al1031   1.843       .  S
Al1031     O1039   1.836       .  S
Al1031     O1041   1.965       .  S
Al1031     O1040   1.785       .  S
C1032      O1045   1.275       .  A
C1032      C1126   1.562   1_655  S
O1033      C1043   1.249       .  A
O1033     Al1035   1.848       .  S
O1034      C1047   1.247       .  A
O1034     Al1044   1.843       .  S
Al1035     O1048   1.975       .  S
Al1035     O1045   1.971       .  S
Al1035     O1040   1.782       .  S
O1036      C1043   1.276       .  A
O1036     Al1044   1.972       .  S
O1037      C1046   1.277       .  A
O1037     Al1044   1.954       .  S
O1038     Al1044   1.832       .  S
O1039      C1046   1.246       .  A
O1040     Al1044   1.784       .  S
O1041      C1042   1.274       .  A
C1042      C1125   1.567       .  S
C1043      C1050   1.575   1_655  S
C1047      O1048   1.275       .  A
C1047      C1049   1.565       .  S
C1049      C1052   1.545       .  S
C1050      C1055   1.546       .  S
C1051      H1058   1.078       .  S
C1053      C1128   1.418       .  A
C1053      N1060   1.436       .  S
C1054      H1059   1.080       .  S
C1054      C1131   1.412   1_655  A
C1056      N1057   1.432       .  S
N1057      H1061   1.043       .  S
N1057      H1062   1.044       .  S
N1060      H1063   1.043       .  S
N1060      H1064   1.044       .  S
O1065      C1080   1.248       .  A
O1065     Al1073   1.846       .  S
C1066      O1076   1.246       .  A
C1066      O1067   1.276       .  A
O1067     Al1069   1.959       .  S
O1068      C1070   1.247       .  A
O1068     Al1069   1.843       .  S
Al1069     O1077   1.837       .  S
Al1069     O1079   1.965       .  S
Al1069     O1078   1.785       .  S
C1070      O1083   1.275       .  A
C1070      C1164   1.562   1_655  S
O1071      C1081   1.249       .  A
O1071     Al1073   1.848       .  S
O1072      C1085   1.247       .  A
O1072     Al1082   1.843       .  S
Al1073     O1086   1.975       .  S
Al1073     O1083   1.971       .  S
Al1073     O1078   1.782       .  S
O1074      C1081   1.276       .  A
O1074     Al1082   1.972       .  S
O1075      C1084   1.277       .  A
O1075     Al1082   1.954       .  S
O1076     Al1082   1.832       .  S
O1077      C1084   1.246       .  A
O1078     Al1082   1.784       .  S
O1079      C1080   1.274       .  A
C1080      C1163   1.567       .  S
C1081      C1088   1.575   1_655  S
C1085      O1086   1.275       .  A
C1085      C1087   1.565       .  S
C1087      C1090   1.545       .  S
C1088      C1093   1.546       .  S
C1089      H1096   1.078       .  S
C1089      C1132   1.391   1_554  A
C1091      C1166   1.418       .  A
C1091      C1130   1.413   1_554  A
C1091      N1098   1.436       .  S
C1092      H1097   1.080       .  S
C1092      C1129   1.413       .  A
C1092      C1169   1.412   1_655  A
C1094      C1127   1.391       .  A
C1094      N1095   1.432       .  S
N1095      H1099   1.043       .  S
N1095      H1100   1.044       .  S
N1098      H1101   1.043       .  S
N1098      H1102   1.044       .  S
O1103      C1118   1.248       .  A
O1103     Al1111   1.846       .  S
C1104      O1114   1.246       .  A
C1104      O1105   1.276       .  A
O1105     Al1107   1.959       .  S
O1106      C1108   1.247       .  A
O1106     Al1107   1.843       .  S
Al1107     O1115   1.837       .  S
Al1107     O1117   1.965       .  S
Al1107     O1116   1.785       .  S
C1108      O1121   1.275       .  A
C1108      C1202   1.562   1_655  S
O1109      C1119   1.249       .  A
O1109     Al1111   1.848       .  S
O1110      C1123   1.247       .  A
O1110     Al1120   1.843       .  S
Al1111     O1124   1.975       .  S
Al1111     O1121   1.971       .  S
Al1111     O1116   1.782       .  S
O1112      C1119   1.276       .  A
O1112     Al1120   1.972       .  S
O1113      C1122   1.277       .  A
O1113     Al1120   1.954       .  S
O1114     Al1120   1.832       .  S
O1115      C1122   1.246       .  A
O1116     Al1120   1.784       .  S
O1117      C1118   1.274       .  A
C1118      C1201   1.567       .  S
C1119      C1126   1.575   1_655  S
C1123      O1124   1.275       .  A
C1123      C1125   1.565       .  S
C1125      C1128   1.545       .  S
C1126      C1131   1.546       .  S
C1127      H1134   1.078       .  S
C1129      C1204   1.418       .  A
C1129      N1136   1.436       .  S
C1130      H1135   1.080       .  S
C1130      C1207   1.412   1_655  A
C1132      N1133   1.432       .  S
N1133      H1137   1.043       .  S
N1133      H1138   1.044       .  S
N1136      H1139   1.043       .  S
N1136      H1140   1.044       .  S
O1141      C1156   1.248       .  A
O1141     Al1149   1.846       .  S
C1142      O1152   1.246       .  A
C1142      O1143   1.276       .  A
O1143     Al1145   1.959       .  S
O1144      C1146   1.247       .  A
O1144     Al1145   1.843       .  S
Al1145     O1153   1.836       .  S
Al1145     O1155   1.965       .  S
Al1145     O1154   1.785       .  S
C1146      O1159   1.275       .  A
O1147      C1157   1.249       .  A
O1147     Al1149   1.848       .  S
O1148      C1161   1.247       .  A
O1148     Al1158   1.843       .  S
Al1149     O1162   1.975       .  S
Al1149     O1159   1.971       .  S
Al1149     O1154   1.782       .  S
O1150      C1157   1.276       .  A
O1150     Al1158   1.972       .  S
O1151      C1160   1.277       .  A
O1151     Al1158   1.954       .  S
O1152     Al1158   1.832       .  S
O1153      C1160   1.246       .  A
O1154     Al1158   1.784       .  S
O1155      C1156   1.274       .  A
C1157      C1164   1.575   1_655  S
C1161      O1162   1.275       .  A
C1161      C1163   1.565       .  S
C1163      C1166   1.545       .  S
C1164      C1169   1.546       .  S
C1165      H1172   1.078       .  S
C1165      C1208   1.391   1_554  A
C1167      C1206   1.413   1_554  A
C1167      N1174   1.436       .  S
C1168      H1173   1.080       .  S
C1168      C1205   1.413       .  A
C1170      C1203   1.391       .  A
C1170      N1171   1.432       .  S
N1171      H1175   1.043       .  S
N1171      H1176   1.044       .  S
N1174      H1177   1.043       .  S
N1174      H1178   1.044       .  S
O1179      C1194   1.248       .  A
O1179     Al1187   1.846       .  S
C1180      O1190   1.246       .  A
C1180      O1181   1.276       .  A
O1181     Al1183   1.959       .  S
O1182      C1184   1.247       .  A
O1182     Al1183   1.843       .  S
Al1183     O1191   1.836       .  S
Al1183     O1193   1.965       .  S
Al1183     O1192   1.785       .  S
C1184      O1197   1.275       .  A
O1185      C1195   1.249       .  A
O1185     Al1187   1.848       .  S
O1186      C1199   1.247       .  A
O1186     Al1196   1.843       .  S
Al1187     O1200   1.975       .  S
Al1187     O1197   1.971       .  S
Al1187     O1192   1.782       .  S
O1188      C1195   1.276       .  A
O1188     Al1196   1.972       .  S
O1189      C1198   1.277       .  A
O1189     Al1196   1.954       .  S
O1190     Al1196   1.832       .  S
O1191      C1198   1.246       .  A
O1192     Al1196   1.784       .  S
O1193      C1194   1.274       .  A
C1195      C1202   1.575   1_655  S
C1199      O1200   1.275       .  A
C1199      C1201   1.565       .  S
C1201      C1204   1.545       .  S
C1202      C1207   1.546       .  S
C1203      H1210   1.078       .  S
C1205      N1212   1.436       .  S
C1206      H1211   1.080       .  S
C1208      N1209   1.432       .  S
N1209      H1213   1.043       .  S
N1209      H1214   1.044       .  S
N1212      H1215   1.043       .  S
N1212      H1216   1.044       .  S
